ELEMENTS
 N   C   H   O  
END
SPECIES
 N2                S-CH2             T-CH2             O                 H2               
 H                 OH                H2O               O2                HO2              
 CH                CO                HCO               CH2O              CH3              
 CO2               CH4               C2H3              C2H4              C2H5             
 C2H               HCCO              C2H2              C3H3              A-C3H5           
 N-C3H7            C2H6              P-C3H4            A-C3H4            A1               
 A1-               C5H5              C3H6              C4H8              C5H6             
 A2                C5H10             C5H11             A1C2H2            A1CH2            
 A1CHO             A1CH3             C7H15             N-C7H16           A1C2H*           
 A2-               A1C2H            
END

TRANS ALL
N2                 1    97.530     3.621     0.000     1.760     4.000          
S-CH2              1   144.000     3.800     0.000     0.000     0.000          
T-CH2              1   144.000     3.800     0.000     0.000     0.000          
O                  0    80.000     2.750     0.000     0.000     0.000          
H2                 1    38.000     2.920     0.000     0.790   280.000          
H                  0   145.000     2.050     0.000     0.000     0.000          
OH                 1    80.000     2.750     0.000     0.000     0.000          
H2O                2   572.400     2.605     1.844     0.000     4.000          
O2                 1   107.400     3.458     0.000     1.600     3.800          
HO2                2   107.400     3.458     0.000     0.000     1.000          
CH                 1    80.000     2.750     0.000     0.000     0.000          
CO                 1    98.100     3.650     0.000     1.950     1.800          
HCO                2   498.000     3.590     0.000     0.000     0.000          
CH2O               2   498.000     3.590     0.000     0.000     2.000          
CH3                1   144.000     3.800     0.000     0.000     0.000          
CO2                1   244.000     3.763     0.000     2.650     2.100          
CH4                2   141.400     3.746     0.000     2.600    13.000          
C2H3               2   209.000     4.100     0.000     0.000     1.000          
C2H4               2   280.800     3.971     0.000     0.000     1.500          
C2H5               2   252.300     4.302     0.000     0.000     1.500          
C2H                1   209.000     4.100     0.000     0.000     2.500          
HCCO               2   150.000     2.500     0.000     0.000     1.000          
C2H2               1   209.000     4.100     0.000     0.000     2.500          
C3H3               2   252.000     4.760     0.000     0.000     1.000          
A-C3H5             2   266.800     4.982     0.000     0.000     1.000          
N-C3H7             2   266.800     4.982     0.000     0.000     1.000          
C2H6               2   252.300     4.302     0.000     0.000     1.500          
P-C3H4             2   252.000     4.760     0.000     0.000     1.000          
A-C3H4             2   252.000     4.760     0.000     0.000     1.000          
A1                 2   464.8       5.29      0.00     10.32      1.000          
A1-                2   464.8       5.29      0.00     10.32      1.000          
C5H5               2   400.0       5.20      0.00      0.00      1.000          
C3H6               2   266.800     4.982     0.000     0.000     1.000          
C4H8               2   345.700     5.088     0.300     0.000     1.000          
C5H6               2   400.0       5.20      0.00      0.00      0.000          
A2                 2   630.4       6.18      0.00     16.50      1.000          
C5H10              2   386.200     5.489     0.400     0.000     1.000          
C5H11              2   440.735     5.041     0.000     0.000     0.000          
A1C2H2             2   546.2       6.00      0.13     15.00      1.000          
A1CH2              2   495.3       5.68      0.43     12.30      1.000          
A1CHO              2   495.3       5.68      0.43     12.30      1.000          
A1CH3              2   495.3       5.68      0.43     12.30      1.000          
C7H15              2   459.600     6.253     0.000     0.000     1.000          
N-C7H16            2   459.600     6.253     0.000     0.000     1.000          
A1C2H*             2   535.6       5.72      0.77     12.00      1.000          
A2-                2   630.4       6.18      0.00     16.50      1.000          
A1C2H              2   535.6       5.72      0.77     12.00      1.000          
END

REACTIONS
 S-CH2+N2 = T-CH2+N2                     1.500e+13    0.000    599.90
 O+H2 = H+OH                             4.590e+04    2.700   6259.56
 H+O+M => OH+M                           9.430e+18   -1.000      0.00
   H2/2.00/ H2O/12.00/ CO/1.75/ CO2/3.60/ CH4/2.00/ C2H6/3.00/ 
 H+OH+M => H2O+M                         4.400e+22   -2.000      0.00
   H2/2.00/ H2O/6.30/ CO/1.75/ CO2/3.60/ CH4/2.00/ C2H6/3.00/ 
 OH+H2 = H+H2O                           1.730e+08    1.510   3429.73
 2OH = O+H2O                             3.970e+04    2.400  -2110.42
 H+O2(+M) => HO2(+M)                     5.120e+12    0.440      0.00
   H2/0.75/ H2O/11.89/ O2/0.85/ CO/1.09/ CO2/2.18/ 
   LOW  /  6.330e+19   -1.400      0.00 /
   TROE/     0.5     0.00 10000000000.00 10000000000.00 /
 H+O2 = O+OH                             2.640e+16   -0.670  17041.11
 HO2+H => O2+H2                          3.649e+06    2.070  -1092.26
 HO2+H => O+H2O                          3.970e+12    0.000    671.61
 HO2+H => 2OH                            7.490e+13    0.000    635.76
 HO2+O => OH+O2                          4.000e+13    0.000      0.00
 HO2+OH => H2O+O2                        2.380e+13    0.000   -499.52
   DUPLICATE
 HO2+OH => H2O+O2                        1.000e+16    0.000  17330.31
   DUPLICATE
 CH+O => CO+H                            5.700e+13    0.000      0.00
 CH+OH => HCO+H                          3.000e+13    0.000      0.00
 CH+H2 = T-CH2+H                         1.080e+14    0.000   3109.46
 CH+H2O => CH2O+H                        5.710e+12    0.000   -755.26
 CH+O2 => HCO+O                          6.710e+13    0.000      0.00
 T-CH2+O => HCO+H                        8.000e+13    0.000      0.00
 T-CH2+OH => CH2O+H                      2.000e+13    0.000      0.00
 T-CH2+OH = CH+H2O                       1.130e+07    2.000   2999.52
 T-CH2+H2 = H+CH3                        5.000e+05    2.000   7229.92
 T-CH2+O2 => CO2+2H                      5.800e+12    0.000   1500.96
 T-CH2+O2 => CH2O+O                      2.400e+12    0.000   1500.96
 T-CH2+O2 => OH+H+CO                     5.000e+12    0.000   1500.96
 S-CH2+H2 = CH3+H                        7.000e+13    0.000      0.00
 S-CH2+O2 => H+OH+CO                     2.800e+13    0.000      0.00
 S-CH2+O2 => CO+H2O                      1.200e+13    0.000      0.00
 S-CH2+H2O(+M) => CH2O+H2(+M)            4.820e+17   -1.160   1144.84
   H2/2.00/ H2O/12.00/ CO/1.75/ CO2/3.60/ CH4/2.00/ C2H6/3.00/ 
   LOW  /  1.880e+38   -6.360   5040.63 /
   TROE/  0.6027   208.00   3922.00  10180.00 /
 S-CH2+H2O = T-CH2+H2O                   3.000e+13    0.000      0.00
 S-CH2+H2O => H2+CH2O                    6.820e+10    0.250   -934.51
 CH3+H(+M) = CH4(+M)                     6.920e+13    0.180      0.00
   H2/2.00/ H2O/6.00/ CO/1.50/ CO2/2.00/ CH4/3.00/ C2H6/3.00/ 
   LOW  /  3.470e+38   -6.300   5074.09 /
 CH3+O => CH2O+H                         5.060e+13    0.000      0.00
 CH3+O => H+H2+CO                        3.370e+13    0.000      0.00
 CH3+OH(+M) => CH2O+H2(+M)               2.790e+18   -1.430   1331.26
   H2/2.00/ H2O/12.00/ CO/1.75/ CO2/3.60/ CH4/2.00/ C2H6/3.00/ 
   LOW  /  4.000e+36   -5.920   3140.54 /
   TROE/   0.412   195.00   5900.00   6394.00 /
 CH3+OH = T-CH2+H2O                      5.600e+07    1.600   5420.65
 CH3+OH = S-CH2+H2O                      6.440e+17   -1.340   1417.30
 CH3+O2 => CH2O+O+H                      1.380e+13    0.000  30480.40
 CH3+O2 => CH2O+OH                       5.870e+11    0.000  13840.82
 CH3+HO2 => CH2O+OH+H                    1.000e+13    0.000      0.00
 CH3+HO2 => CH4+O2                       3.610e+12    0.000      0.00
 CH3+CH => C2H3+H                        3.000e+13    0.000      0.00
 CH3+T-CH2 => C2H4+H                     1.000e+14    0.000      0.00
 2CH3 = C2H5+H                           6.840e+12    0.100  10599.90
 2CH3 => S-CH2+CH4                       2.632e+12   -0.060  13661.57
 CH4+H = CH3+H2                          6.600e+08    1.620  10841.30
 CH4+O = CH3+OH                          1.020e+09    1.500   8599.43
 CH4+OH = CH3+H2O                        1.000e+08    1.600   3119.02
 CH4+CH => C2H4+H                        6.000e+13    0.000      0.00
 CH4+T-CH2 = 2CH3                        2.460e+06    2.000   8269.60
 CO+O(+M) => CO2(+M)                     1.360e+10    0.000   2385.28
   H2/2.00/ H2O/12.00/ CO/1.75/ CO2/3.60/ CH4/2.00/ C2H6/3.00/ 
   LOW  /  1.170e+24   -2.790   4192.16 /
   TROE/       1     1.00 10000000.00 10000000.00 /
 CO+OH = CO2+H                           8.000e+11    0.140   7351.82
   DUPLICATE
 CO+OH = CO2+H                           8.780e+10    0.030    -16.73
   DUPLICATE
 CO+HO2 => CO2+OH                        3.010e+13    0.000  22999.52
 CO+S-CH2 = CO+T-CH2                     9.000e+12    0.000      0.00
 HCO+H => CO+H2                          1.200e+14    0.000      0.00
 HCO+O => CO+OH                          3.000e+13    0.000      0.00
 HCO+O => CO2+H                          3.000e+13    0.000      0.00
 HCO+OH => CO+H2O                        3.020e+13    0.000      0.00
 HCO+M = CO+H+M                          1.870e+17   -1.000  17000.48
   H2/2.00/ H2O/0.00/ CO/1.75/ CO2/3.60/ CH4/2.00/ C2H6/3.00/ 
 HCO+H2O = CO+H+H2O                      2.240e+18   -1.000  17000.48
 HCO+O2 => CO+HO2                        1.200e+10    0.810   -726.58
 CH3+HCO => CH4+CO                       2.650e+13    0.000      0.00
 CH2O+H = HCO+H2                         5.740e+07    1.900   2741.40
 CH2O+O => HCO+OH                        3.900e+13    0.000   3539.67
 CH2O+OH => HCO+H2O                      3.430e+09    1.180   -446.94
 CH3+CH2O => CH4+HCO                     3.320e+03    2.810   5860.42
 CO2+CH => HCO+CO                        1.900e+14    0.000  15791.11
 CO2+S-CH2 = CO2+T-CH2                   7.000e+12    0.000      0.00
 CO2+S-CH2 => CH2O+CO                    1.400e+13    0.000      0.00
 C2H+O => CH+CO                          5.000e+13    0.000      0.00
 C2H+OH => HCCO+H                        2.000e+13    0.000      0.00
 C2H+O2 => HCO+CO                        1.000e+13    0.000   -755.26
 C2H+H2 = C2H2+H                         3.310e+06    2.260    901.05
 C2H2+H(+M) = C2H3(+M)                   1.710e+10    1.270   2707.93
   H2/2.00/ H2O/12.00/ CO/1.75/ CO2/3.60/ CH4/2.00/ C2H6/3.00/ 
   LOW  /  6.340e+31   -4.660   3781.07 /
   TROE/  0.2122     1.00 -10210.00 /
 C2H2+O => HCCO+H                        8.100e+06    2.000   1900.10
 C2H2+O => T-CH2+CO                      1.250e+07    2.000   1900.10
 C2H2+O => C2H+OH                        3.324e+16   -0.440  30697.90
 C2H2+OH => C2H+H2O                      2.630e+06    2.140  17060.23
 C2H2+OH => CH3+CO                       7.530e+06    1.550   2105.64
   DUPLICATE
 C2H2+OH => CH3+CO                       1.280e+09    0.730   2578.87
   DUPLICATE
 C2H2+S-CH2 = C3H3+H                     1.900e+14    0.000      0.00
 C2H3+H(+M) => C2H4(+M)                  6.080e+12    0.270    279.64
   H2/2.00/ H2O/12.00/ CO/1.75/ CO2/3.60/ CH4/2.00/ C2H6/3.00/ 
   LOW  /  1.400e+30   -3.860   3319.79 /
   TROE/   0.782   207.50   2663.00   6095.00 /
 C2H3+H => C2H2+H2                       3.000e+13    0.000      0.00
 C2H3+O => CH3+CO                        1.030e+13    0.210   -427.82
 C2H3+OH => C2H2+H2O                     5.000e+12    0.000      0.00
 C2H3+O2 => C2H2+HO2                     1.340e+06    1.610   -384.80
 C2H3+O2 => CH3+CO+O                     3.030e+11    0.290     11.95
 C2H3+O2 => HCO+CH2O                     4.580e+16   -1.390   1015.77
 C2H3+HCO => C2H4+CO                     9.000e+13    0.000      0.00
 C2H3+CH3 => C2H2+CH4                    9.030e+12    0.000   -764.82
 C2H3+CH3 = A-C3H5+H                     1.930e+18   -1.250   7669.69
 C2H4+H(+M) = C2H5(+M)                   1.370e+09    1.460   1355.16
   H2/2.00/ H2O/12.00/ CO/1.75/ CO2/3.60/ CH4/2.00/ C2H6/3.00/ 
   LOW  /  2.030e+39   -6.640   5769.60 /
   TROE/  -0.569   299.00  -9147.00    152.40 /
 C2H4+H => C2H3+H2                       1.330e+06    2.530  12239.48
 C2H4+O => CH3+CO+H                      7.660e+09    0.880   1140.06
 C2H4+O => T-CH2+CH2O                    7.150e+04    2.470    929.73
 C2H4+O => CH3+HCO                       3.890e+08    1.360    886.71
 C2H4+OH => C2H3+H2O                     1.310e-01    4.200   -860.42
 C2H4+OH => CH3+CH2O                     3.750e+36   -7.800   7060.23
 C2H4+CH3 => C2H3+CH4                    2.270e+05    2.000   9199.33
 C2H4+CH3(+M) = N-C3H7(+M)               2.550e+06    1.600   5700.29
   H2/2.00/ H2O/12.00/ CO/1.75/ CO2/3.60/ CH4/2.00/ C2H6/3.00/ 
   LOW  /  3.000e+63  -14.600  18169.22 /
   TROE/  0.1894   277.00   8748.00   7891.00 /
! C2H4=>C2H3+H                            8.100e+77  -17.620 120399.14
 C2H5+H(+M) = C2H6(+M)                   5.210e+17   -0.990   1579.83
   H2/2.00/ H2O/12.00/ CO/1.75/ CO2/3.60/ CH4/2.00/ C2H6/3.00/ 
   LOW  /  1.990e+41   -7.080   6684.99 /
   TROE/  0.8422   125.00   2219.00   6882.00 /
 C2H5+O => CH3+CH2O                      3.170e+13    0.030   -394.36
 C2H5+O2 => C2H4+HO2                     1.920e+07    1.020  -2033.94
 C2H5+HCO => C2H6+CO                     1.200e+14    0.000      0.00
 C2H5+HO2 => C2H6+O2                     3.000e+11    0.000      0.00
 C2H5+HO2 => CH3+CH2O+OH                 3.100e+13    0.000      0.00
 C2H6(+M) = 2CH3(+M)                     1.880e+50   -9.720 107342.26
   H2/2.00/ H2O/12.00/ CO/1.75/ CO2/3.60/ CH4/2.00/ C2H6/3.00/ 
   LOW  /  3.720e+65  -13.140 101579.83 /
   TROE/    0.39   100.00   1900.00   6000.00 /
 C2H6+H => C2H5+H2                       1.700e+05    2.700   5740.92
 C2H6+O => C2H5+OH                       8.980e+07    1.920   5690.73
 C2H6+OH => C2H5+H2O                     1.610e+06    2.220    740.92
 C2H6+CH3 => C2H5+CH4                    8.430e+14    0.000  22256.21
 HCCO(+M) => CO+CH(+M)                   2.255e+20   -1.440  74732.31
   H2/2.00/ H2O/12.00/ CO/1.75/ CO2/3.60/ CH4/2.00/ C2H6/3.00/ 
   LOW  /  1.213e+35   -5.180  76668.26 /
   TROE/  0.5757   237.00   1652.00   5069.00 /
 HCCO+H => S-CH2+CO                      1.000e+14    0.000      0.00
 HCCO+O => H+2CO                         1.000e+14    0.000      0.00
 HCCO+O2 => OH+2CO                       4.200e+10    0.000    853.25
 2HCCO => C2H2+2CO                       1.000e+13    0.000      0.00
 HCCO+C2H2 => C3H3+CO                    1.000e+11    0.000   2999.52
 HCCO+CH3 => C2H4+CO                     5.000e+13    0.000      0.00
 HCCO+OH => 2HCO                         1.000e+13    0.000      0.00
 C3H3+H = P-C3H4                         7.940e+29   -5.060   4861.38
 C3H3+H = A-C3H4                         3.160e+29   -5.000   4710.80
 C3H3+OH => C2H4+CO                      1.280e+09    0.730   2578.87
 C3H3+O => C2H2+CO+H                     6.950e+13    0.000      0.00
 C3H3+O2 => CH3+2CO                      1.700e+05    1.700   1500.96
 C3H3+HO2 => OH+CO+C2H3                  8.000e+11    0.000      0.00
 2C3H3 = A1                              1.870e+46   -9.840  16804.49
 2C3H3 = A1-+H                           5.770e+37   -7.000  31505.74
 C3H3+C2H2 = C5H5                        2.350e+11    0.000   9995.22
 P-C3H4+H = C2H2+CH3                     3.460e+12    0.440   5463.67
 P-C3H4+H = C3H3+H2                      8.500e+04    2.700   5740.92
 P-C3H4+OH => C3H3+H2O                   8.050e+05    2.220    740.92
 P-C3H4+CH3 => C3H3+CH4                  4.220e+14    0.000  22256.21
 P-C3H4+O => HCCO+CH3                    4.050e+06    2.000   1900.10
 P-C3H4+O => C2H4+CO                     6.250e+06    2.000   1900.10
 P-C3H4+OH => C2H5+CO                    1.280e+09    0.730   2578.87
 A-C3H4+H = C2H2+CH3                     8.950e+13   -0.020  11250.00
 A-C3H4 = P-C3H4                         7.760e+39   -7.800  78446.46
 A-C3H4+H = P-C3H4+H                     2.470e+15   -0.330   6436.42
 A-C3H4+H => C3H3+H2                     1.330e+06    2.530  12239.48
 A-C3H4+OH => C3H3+H2O                   1.310e-01    4.200   -860.42
 A-C3H4+CH3 => C3H3+CH4                  2.270e+05    2.000   9199.33
 A-C3H4+H = A-C3H5                       2.010e+49  -10.770  19622.37
 A-C3H5+H => A-C3H4+H2                   9.560e+03    2.800   3291.11
 A-C3H5+OH => A-C3H4+H2O                 6.030e+12    0.000      0.00
 A-C3H5+CH3 => A-C3H4+CH4                4.860e+11   -0.320   -131.45
 A-C3H5+O2 => C2H2+CH2O+OH               9.710e+20   -2.700  24980.88
 A-C3H5+C3H3 => A1+2H                    2.160e+39   -7.740  23852.77
 C3H6+H(+M) = N-C3H7(+M)                 3.060e+14   -0.370   4032.03
   H2/2.00/ H2O/12.00/ CO/1.75/ CO2/3.60/ CH4/2.00/ C2H6/3.00/ 
   LOW  /  6.260e+38   -6.660   7000.48 /
   TROE/       1  1000.00   1310.00  48100.00 /
 C3H6 = C2H3+CH3                         4.040e+42   -7.670 111830.78
 A-C3H5+H = C3H6                         5.930e+54  -11.760  23549.24
 C3H6+H = C2H4+CH3                       8.000e+21   -2.390  11180.69
 C3H6+O => 2CH3+CO                       1.200e+08    1.600    327.44
 C3H6+O => C2H5+HCO                      3.500e+07    1.600   -972.75
 C3H6+H => A-C3H5+H2                     6.600e+05    2.540   6756.69
 C3H6+O => A-C3H5+OH                     9.650e+04    2.680   3716.54
 C3H6+OH => A-C3H5+H2O                   2.000e+08    1.460    537.76
 C3H6+CH3 => A-C3H5+CH4                  4.520e-01    3.650   7153.44
 C4H8+H => C2H5+C2H4                     7.680e+12    0.110   1479.45
 C4H8 => A-C3H5+CH3                      5.000e+15    0.000  70999.04
 C5H5+HO2 => O2+C5H6                     2.561e+12    0.060   3116.63
 2C5H5 => A2+2H                          6.390e+29   -4.030  35205.54
 C5H5+O => C2H3+C2H2+CO                  7.000e+13    0.000      0.00
 C5H5+HO2 => C2H3+C2H2+CO+OH             6.776e+29   -4.700  11658.70
 C5H5+HO2 => 2C2H2+CO+H2O                1.190e+33   -6.520  13401.05
 C5H5+OH => C2H3+C2H2+CO+H               3.020e+13    0.000      0.00
 C5H6 = C5H5+H                           1.730e+68  -15.160 116371.89
 C5H6+H => C5H5+H2                       2.800e+13    0.000   2258.60
 C5H6+H => A-C3H5+C2H2                   6.600e+14    0.000  12344.65
 C5H6+O => C5H5+OH                       4.770e+04    2.710   1106.60
 C5H6+OH => C5H5+H2O                     3.080e+06    2.000      0.00
 C5H6+CH3 => C5H5+CH4                    1.800e-01    4.000      0.00
 C5H10+H => C5H11                        7.100e+12    0.120   1460.33
 C5H10 => C2H5+A-C3H5                    9.170e+20   -1.630  73989.01
 C5H11 => C2H4+N-C3H7                    7.460e+21   -2.610  32026.77
 C5H11 => H+C5H10                        8.460e+14   -0.470  37617.11
 C5H11 => C3H6+C2H5                      3.150e-19    8.840   7105.64
 A1-+O2 => C5H5+CO+O                     2.600e+13    0.000   6120.94
 A1-+O2 => 2CO+2C2H2+H                   3.000e+13    0.000   8979.45
 A1-+O => C5H5+CO                        1.000e+14    0.000      0.00
 A1-+OH => C5H6+CO                       3.000e+13    0.000      0.00
 A1-+HO2 => C5H5+CO+OH                   3.000e+13    0.000      0.00
 A1-+C2H2 = A1C2H2                       3.290e+06    2.050   3162.05
 A1 = A1-+H                              1.290e+61  -12.480 148085.56
 A1+H => A1-+H2                          6.020e+08    1.800  16352.77
 A1+OH => A1-+H2O                        4.030e+02    3.330   1455.54
 A1+CH3 => A1-+CH4                       2.752e-02    4.460  13637.67
 A1+O => C5H5+CO+H                       2.220e+13    0.000   4531.55
 A1+OH => C5H6+CO+H                      1.320e+02    3.250   5590.34
 A1CH2 = C5H5+C2H2                       8.200e+14    0.000  80676.39
 A1CH2+H = A1-+CH3                       5.830e+67  -14.150  68329.35
 A1CH2+O => A1CHO+H                      3.310e+14    0.000      0.00
 A1CH2+HO2 => A1CHO+OH+H                 1.060e+16   -0.940   2523.90
 A1CH2+C3H3 => A2+2H                     4.320e+39   -7.740  23852.77
 A1CH3+H = A1+CH3                        2.310e+06    2.170   4163.48
 A1CH3 = A1CH2+H                         1.250e+18   -0.600  94787.28
 A1CH3 = A1-+CH3                         2.160e+29   -3.580 110164.91
 A1CH3+H => A1CH2+H2                     6.470e+00    3.980   3384.32
 A1CH3+OH => A1CH2+H2O                   1.620e+13    0.000   2770.08
 A1CH3+CH3 => A1CH2+CH4                  4.220e+14    0.000  22256.21
 C7H15 => C5H11+C2H4                     1.890e+12    0.020  27784.42
 C7H15 => C2H5+C2H4+C3H6                 7.730e+18   -1.750  31974.19
 C7H15 => C4H8+N-C3H7                    2.530e+18   -1.650  31682.60
 C7H15 => C2H5+C5H10                     2.490e+16   -1.180  29517.21
 N-C7H16 => C5H11+C2H5                   8.100e+77  -17.620 120399.14
 N-C7H16 => C2H5+C2H4+N-C3H7             1.420e+78  -17.710 120700.29
 N-C7H16+H => C7H15+H2                   1.750e+06    2.600   4361.85
 N-C7H16+O => C7H15+OH                   1.720e+05    2.810   2260.99
 N-C7H16+OH => C7H15+H2O                 7.400e+08    1.500    258.13
 N-C7H16+CH3 => C7H15+CH4                1.460e+04    2.570   6933.56
 A1CHO => A1-+HCO                        2.610e+15    0.150  80549.71
 A1CHO+H => A1-+CO+H2                    2.050e+09    1.160   2404.40
 A1CHO+CH3 => A1-+CO+CH4                 2.720e+06    1.770   5920.17
 A1C2H*+C2H2 = A2-                       1.340e+04    2.500   1283.46
 A1C2H*+C2H4 = A2+H                      3.620e+28   -4.240  23864.72
 A1C2H = A1C2H*+H                        2.100e+60  -12.400 148076.00
 A1C2H+H = A1C2H*+H2                     1.320e+08    1.880  16821.22
 A1C2H+OH = A1C2H*+H2O                   1.340e+02    3.330   1455.54
 A1C2H2 = A1C2H+H                        1.340e+17   -0.860  41238.05
 A1C2H2+C2H2 = A2+H                      7.091e+13   -0.260   7002.87
 A2 = A2-+H                              8.600e+60  -12.480 148076.00
 A2+H = A2-+H2                           2.650e+08    1.870  17096.08
 A2+OH = A2-+H2O                         9.630e+02    3.020   4373.80
END
