! GRI-Mech Version 2.11 11/3/95  1st release 9/6/95  CHEMKIN-II format
! RETAINING ONLY THE RELEVANT HYDROGEN-OXYGEN CHEMISTRY
ELEMENTS
O  H  N
END
SPECIES
H2      H       O       O2      OH      H2O     HO2     H2O2    
N2
END
!THERMO
! Insert GRI-Mech thermodynamics here or use in default file
!END
TRANS ALL
H2                 1    38.000     2.920     0.000     0.790   280.000          
H                  0   145.000     2.050     0.000     0.000     0.000          
O                  0    80.000     2.750     0.000     0.000     0.000          
O2                 1   107.400     3.458     0.000     1.600     3.800          
OH                 1    80.000     2.750     0.000     0.000     0.000          
H2O                2   572.400     2.605     1.844     0.000     4.000          
HO2                2   107.400     3.458     0.000     0.000     1.000          
H2O2               2   107.400     3.458     0.000     0.000     3.800          
N2                 1    97.530     3.621     0.000     1.760     4.000          
END
REACTIONS
2O+M<=>O2+M                              1.200E+17   -1.000        .00
H2/ 2.40/ H2O/15.40/ 
O+H+M<=>OH+M                             5.000E+17   -1.000        .00
H2/2.00/ H2O/6.00/
O+H2<=>H+OH                              5.000E+04    2.670    6290.00
O+HO2<=>OH+O2                            2.000E+13     .000        .00
O+H2O2<=>OH+HO2                          9.630E+06    2.000    4000.00
H+O2+M<=>HO2+M                           2.800E+18    -.860        .00
O2/ .00/ H2O/ .00/ N2/ .00/
H+2O2<=>HO2+O2                           3.000E+20   -1.720        .00
H+O2+H2O<=>HO2+H2O                       9.380E+18    -.760        .00
H+O2+N2<=>HO2+N2                         3.750E+20   -1.720        .00
H+O2<=>O+OH                              8.300E+13     .000   14413.00
2H+M<=>H2+M                              1.000E+18   -1.000        .00
H2/ .00/ H2O/ .00/
2H+H2<=>2H2                              9.000E+16    -.600        .00
2H+H2O<=>H2+H2O                          6.000E+19   -1.250        .00
H+OH+M<=>H2O+M                           2.200E+22   -2.000        .00
H2/ .73/ H2O/3.65/
H+HO2<=>O+H2O                            3.970E+12     .000     671.00
H+HO2<=>O2+H2                            2.800E+13     .000    1068.00
H+HO2<=>2OH                              1.340E+14     .000     635.00
H+H2O2<=>HO2+H2                          1.210E+07    2.000    5200.00
H+H2O2<=>OH+H2O                          1.000E+13     .000    3600.00
OH+H2<=>H+H2O                            2.160E+08    1.510    3430.00
2OH(+M)<=>H2O2(+M)                       7.400E+13    -.370        .00
     LOW  /  2.300E+18    -.900  -1700.00/
     TROE/   .7346   94.00  1756.00  5182.00 /
H2/2.00/ H2O/6.00/
2OH<=>O+H2O                              3.570E+04    2.400   -2110.00
OH+HO2<=>O2+H2O                          2.900E+13     .000    -500.00
OH+H2O2<=>HO2+H2O                        1.750E+12     .000     320.00
 DUPLICATE
OH+H2O2<=>HO2+H2O                        5.800E+14     .000    9560.00
 DUPLICATE
2HO2<=>O2+H2O2                           1.300E+11     .000   -1630.00
 DUPLICATE
2HO2<=>O2+H2O2                           4.200E+14     .000   12000.00
 DUPLICATE
END
