ELEMENTS  H  O  C  N  AR  HE  S  END                                            
SPECIES
     S       SH      H2S     
SO      SO2     SO3     HSO2    HOSO    HOSO2   SN      S2      S4      CS      
COS     HSNO    HSO     HOS     HSOH    H2SO    HOSHO  CH3OH  AR     
END
THERMO ALL
   300.000  1000.000  5000.000
S                       S   1    0    0    0G    300.00   5000.00 1000.00    0 1
 2.90214800E+00-5.48454600E-04 2.76457600E-07-5.01711500E-11 3.15068500E-15    2
 3.24942300E+04 3.83847100E+00 3.18732900E+00-1.59577600E-03 2.00553100E-06    3
-1.50708100E-09 4.93128200E-13 3.24225900E+04 2.41444100E+00                   4
SH                      H   1S   1    0    0G    300.00   5000.00 1000.00    0 1
 3.05381000E+00 1.25888400E-03-4.24916900E-07 6.92959100E-11-4.28169100E-15    2
 1.58822500E+04 5.97355100E+00 4.13332700E+00-3.78789300E-04-2.77785400E-06    3
 5.37011200E-09-2.39400600E-12 1.55586200E+04 1.61153500E-01                   4
H2S                     H   2S   1    0    0G    300.00   5000.00 1000.00    0 1
 2.88314700E+00 3.82783500E-03-1.42339800E-06 2.49799900E-10-1.66027300E-14    2
-3.48074300E+03 7.25816200E+00 3.07102900E+00 5.57826100E-03-1.03096700E-05    3
 1.20195300E-08-4.83837000E-12-3.55982600E+03 5.93522600E+00                   4
SO                      O   1S   1    0    0G    300.00   5000.00 1000.00    0 1
 4.02107800E+00 2.58485600E-04 8.94814200E-08-3.58014500E-11 3.22843000E-15    2
-7.11962000E+02 3.45252300E+00 3.08040100E+00 1.80310600E-03 6.70502200E-07    3
-2.06900500E-09 8.51465700E-13-3.98616300E+02 8.58102800E+00                   4
SO2                     O   2S   1    0    0G    300.00   5000.00 1000.00    0 1
 5.25449800E+00 1.97854500E-03-8.20422600E-07 1.57638300E-10-1.12045100E-14    2
-3.75688600E+04-1.14605600E+00 2.91143900E+00 8.10302200E-03-6.90671000E-06    3
 3.32901600E-09-8.77712100E-13-3.68788200E+04 1.11174000E+01                   4
SO3                     O   3S   1    0    0G    300.00   5000.00 1000.00    0 1
 7.05066800E+00 3.24656000E-03-1.40889700E-06 2.72153500E-10-1.94236500E-14    2
-5.02066800E+04-1.10644300E+01 2.57528300E+00 1.51509200E-02-1.22987200E-05    3
 4.24025700E-09-5.26681200E-13-4.89441100E+04 1.21951200E+01                   4
HSO2                    H   1O   2S   1    0G    300.00   5000.00 1405.00    0 1
 7.82655470E+00 1.97565395E-03-7.12730215E-07 1.14708984E-10-6.82550323E-15    2
-2.00091477E+04-1.43642262E+01 2.00395094E+00 1.80108509E-02-1.76720868E-05    3
 8.22481644E-09-1.47522947E-12-1.82692974E+04 1.59791450E+01                   4
HOSO                    H   1O   2S   1    0G    300.00   5000.00 1567.00    0 1
 7.04245010E+00 2.18309496E-03-6.47082992E-07 6.94645454E-11-1.37453533E-15    2
-3.15766053E+04-9.01717791E+00 2.90528704E+00 1.39276091E-02-1.32076582E-05    3
 6.11937491E-09-1.11304882E-12-3.04216713E+04 1.23532888E+01                   4
HOSO2                   H   1O   3S   1    0G    300.00   5000.00 1416.00    0 1
 9.63528432E+00 2.70365010E-03-9.02181160E-07 1.37938575E-10-7.92380410E-15    2
-5.05592737E+04-2.12082633E+01 3.69703403E+00 2.01504552E-02-2.04784324E-05    3
 9.98072024E-09-1.86357982E-12-4.88948044E+04 9.34829261E+00                   4
SN                      N   1S   1    0    0G    300.00   5000.00 1000.00    0 1
 3.88828700E+00 6.77842700E-04-2.72530900E-07 5.13592700E-11-3.59383600E-15    2
 3.04449600E+04 4.19429100E+00 3.40734600E+00 1.79788700E-03-2.01897000E-06    3
 2.10785700E-09-9.52759200E-13 3.06237300E+04 6.82148100E+00                   4
S2                      S   2    0    0    0G    300.00   5000.00 1000.00    0 1
 3.90444300E+00 6.92573300E-04-1.23309700E-07 8.78380900E-13 1.37466200E-15    2
 1.42569300E+04 4.95683400E+00 3.15767300E+00 3.09948000E-03-1.56074600E-06    3
-1.35789100E-09 1.13744400E-12 1.43918700E+04 8.59606200E+00                   4
S4                      S   4    0    0    0G    300.00   5000.00 1000.00    0 1
 2.90214800E+00-5.48454600E-04 2.76457600E-07-5.01711400E-11 3.15068400E-15    2
 3.24942300E+04 3.83847100E+00 3.18732900E+00-1.59577630E-03 2.00553100E-06    3
-1.50708140E-09 4.93128200E-13 3.24225900E+04 2.41444100E+00                   4
CS                      C   1S   1    0    0G    300.00   5000.00 1000.00    0 1
 3.73743100E+00 8.18045100E-04-3.17891800E-07 5.35680100E-11-2.88619500E-15    2
 3.24772500E+04 3.57655700E+00 2.93862300E+00 2.72435200E-03-2.39770700E-06    3
 1.68950100E-09-6.66505000E-13 3.27399200E+04 7.84872000E+00                   4
COS                     O   1C   1S   1    0G    300.00   5000.00 1000.00    0 1
 5.19192500E+00 2.50612300E-03-1.02439600E-06 1.94391400E-10-1.37080000E-14    2
-1.84621000E+04-2.82575500E+00 2.85853100E+00 9.51545800E-03-8.88491500E-06    3
 4.22099400E-09-8.55734000E-13-1.78514500E+04 9.08198900E+00                   4
HSNO                    H   1O   1N   1S   1G    300.00   5000.00 1000.00    0 1
 2.90214800E+00-5.48454600E-04 2.76457600E-07-5.01711400E-11 3.15068400E-15    2
 3.24942300E+04 3.83847100E+00 3.18732900E+00-1.59577630E-03 2.00553100E-06    3
-1.50708140E-09 4.93128200E-13 3.24225900E+04 2.41444100E+00                   4
HSO                     H   1O   1S   1    0G    300.00   5000.00 1400.00    0 1
 5.57475145E+00 1.31175997E-03-4.76577199E-07 7.70343549E-11-4.59674988E-15    2
-4.80068906E+03-3.82796918E+00 2.44598330E+00 9.09307366E-03-7.78732066E-06    3
 3.15246377E-09-4.92668053E-13-3.78785722E+03 1.27639794E+01                   4
HOS                     H   1O   1S   1    0G    300.00   5000.00 1442.00    0 1
 4.49316813E+00 1.81090075E-03-5.57187695E-07 8.01651435E-11-4.39893528E-15    2
-1.54028801E+03 2.36510873E+00 2.82801367E+00 6.93571543E-03-6.49990411E-06    3
 3.13079139E-09-5.86043314E-13-1.09992719E+03 1.08453181E+01                   4
HSOH                    H   2O   1S   1    0G    300.00   5000.00 1388.00    0 1
 6.43667530E+00 3.13891058E-03-1.10935086E-06 1.76067969E-10-1.03738319E-14    2
-1.69165344E+04-9.13609497E+00 2.35480570E+00 1.30839922E-02-1.04916809E-05    3
 4.25091682E-09-6.95457523E-13-1.55429595E+04 1.26362987E+01                   4
H2SO                    H   2O   1S   1    0G    300.00   5000.00 1681.00    0 1
 5.92309891E+00 3.93743715E-03-1.48511685E-06 2.46869162E-10-1.50373964E-14    2
-8.16469887E+03-7.26071366E+00 1.18244888E+00 1.49509578E-02-1.06570094E-05    3
 3.50236411E-09-4.30751546E-13-6.61669590E+03 1.80690521E+01                   4
HOSHO                   H   2O   2S   1    0G    300.00   5000.00 1411.00    0 1
 9.04076254E+00 3.32475609E-03-1.14359756E-06 1.78567554E-10-1.04123413E-14    2
-3.60485772E+04-2.16335084E+01 1.61424363E+00 2.35366952E-02-2.21889148E-05    3
 1.00638427E-08-1.76696574E-12-3.38140783E+04 1.71388481E+01                   4
END
REACTIONS   MOLES  KELVINS                                                      
!
!
!  units:   MOLES,     KELVINS
!
!                                                    
 C+SO2 = CO+SO                                     4.156E+13  0.00   0.00
!   [91DOR/CAU]
!
!
SO2+OH+M = HOSO2+M                                  1.0e25   -4.34    1535
SO2+OH = HOSO + O                                   3.9e8     1.89    38247
SO2+OH = SO3 + H                                    4.9e2     2.69    11977
!    [96GLA/KUB]   QRRK estimates
!
!
!
!SO+OH => SO2+H                                       5.2e13  0   0
!SO2+H => SO+OH                                       2.24e18  -0.8  15009.19
!   Initially as above from [96GLA/KUB] for SO+OH,   QRRK estimate
!   Modified during validation studies to:
SO+OH => SO2+H                                       1.8e13  0   0
SO2+H => SO+OH                                       6.195e17  -0.8  15009.19
!
!
!
!
HSO2 + M = SO2 + H +M                               1.28e28   -4.14   9511
HSO2 + M = HOSO + M                                 1.1e21    -1.99   15047
!    [96GLA/KUB]   QRRK estimates
!
!
!
!     NIST fit
HSO2+H = SO2+H2                                     3.0E12   0   0
!    [69HAL/JEN]
!
!
!  
HOSO + H = SO + H2O                                 6.3e-10   6.29   -956
!    [96GLA/KUB]     estimate
!
!
!
HOSO + OH = SO2 + H2O                               1.0e12   0    0
!    [96GLA/KUB]     estimate
!
!
!  
HOSO2+H = SO3+H2                                    1.0E+12   0.00       0.00
!    [91CHA/GOD]
!
!  
!
HOSO2 + H = SO2 + H2O                               1.0e12    0   0
!    [96GLA/KUB]     estimate
!
!
!
!   
HOSO2+OH = SO3+H2O                                  1.0E+12   0.00       0.00
!     [96GLA/KUB]     estimate
!
!
!
!
SO + O2 = SO2 + O                                   6.2e3    2.42    1535
!   [95WOI/ROT]
!
!
!   
SO2+O+M = SO3 + M                                   4.0e28   -4.0   2642
     N2 /1.3/  H2O /10/
!   [96GLA/KUB]     
!
!
!
!
S+OH = H + SO                                       4.0e13   0   0
!     [96GLA/KUB]     
!
!
!
SO+SO = SO2 + S                                     2.0e12   0    2013
!     [96GLA/KUB]     
!
!
!
S+H2 = SH + H                                       6.0e14    0    12078
!     [95WOI/ROT]
!
!
S+CH4 = SH+CH3                                      6.0e14    0    12078
!   estimate, based on [96GLA/KUB] value for S+H2
!
!
!  
H2S+H = SH + H2                                     1.2e7     2.1     352
!   E  ?   293 - 2237 [92YOS/KOS]   
!
!
!
!  
H2S+CH3 = CH4+SH                                    1.8E11    0    1177
!   linear fit to NIST values
!
!
!
! 
SH + O = SO + H                                     1.0e14     0     0
!    [94TSU/YOK]   
!
!
!
H2S+OH = SH+H2O                                     2.7e12   0   0
!    [91TIN/RAV]
!
!
!
!
!           
S+OH = SH+O                                        6.3e11   0.5   4030
!   [83WEN/WOO]     
!
!
!
!
SH+NO = SN+OH                                      1.0E+13   0.00    8901
!    [91CHA/GOD]  estimate, modified by KJH for new calculation of delta H
!
!
!
S+NO = SN+O                                        1e12  0.5  17500
!    [83WEN/WOO]      
!
!
!
SH+NH = SN+H2                                      1.0E+14   0.00       0.00
!    [91CHA/GOD]     estimate
!
!
!
N+SO = NO+S                                        6.31E+11   0.50    1010
!    [83WEN/WOO]     estimate
!
!
!
N+SH = SN+H                                        6.31E+11   0.50    4030
!    [83WEN/WOO]     estimate
!
!
!
!  
SN+NO = N2+SO                                      1.0E+14   0.00       0.00
!    [91CHA/GOD]     estimate
!
!
!
N+SN = N2+S                                        6.3e11   0.5   0    
!    [83WEN/WOO]     
!
!
!
C+H2S = CH+SH                                      1.2e14   0    4450
!    estimate by KJH
!
!  
!
SO2+NO2 = NO+SO3                                   4.25e-19  8.9  3797   
!  fit to all NIST data
!
!
!
SO3+O = O2+SO2                                     1.319E+12   0.00    3070.46
!    [82SMI/TSE]
!
!
! 
SO+NO2 = SO2+NO                                    8.432E+12   0.00       0.00
!    [92ATK/BAU]
!
!
!
O+SO+M = SO2+M                                     1.1e22    -1.84     0
     N2 /1.5/ H2O /10/
!    [96GLA/KUB]   
!
!
!     
O+COS = CO+SO                                      1.93e13   0    2329
!     fit to NIST data
!
!
!
S+O2 = SO+O                                        2.0e6     1.93     -704.5
!     [96GLA/KUB]   
!
!
!  
O+H2S = SH+OH                                      6.4e7     1.78     1429
!     [96GLA/KUB]   
!
!
!  
O+CS = CO+S                                        1.626E+14   0.00     759.94
!     [92ATK/BAU]
!
!
!   746  see NIST 87CRA/MUR
S2+O = SO+S                                        1.325E+13   0.00      84.05
!     [87CRA/MUR]
!
!
!
SO3 + SO = SO2 + SO2                               1.0e12    0    2013
!     [96GLA/KUB]   
!
!
!
S2+M = S+S+M                                       4.79e13     0   38749
!    [80HIG/SAI]
!
!
!
!
! 
SN+O = SO+N                                        6.31E+11   0.50    4030
!    [83WEN/WOO]  
!
!
!   
COS+M = CO+S+M                                     1.43E14   0    30700
!   fit to NIST Data
!
!
!   
SH+OH = S+H2O                                      1.0e13     0     0
!     [96GLA/KUB]    estimate
!
!
!  
O+COS = CO2+S                                      5E+13   0.00    5530.45
!    [88SIN/CVE]
!
!
!
SH+O2 = SO+OH                                      1.0e12    0    5032
!     [96GLA/KUB]    estimate
!
!
!
SO3 + H = HOSO + O                                 2.5e5     2.92   25313
!     [96GLA/KUB]   
!
!
! 
S+NH = SH+N                                        1.0E+13   0.00       0.00
!   [89PFE/CHU]     estimate
!
!
!  
NH+SO = NO+SH                                      1.0e13   0.00       0.00
!   [89PFE/CHU]     estimate
!
!
!  
CH+SO = CO+SH                                      1.0e13   0.00       0.00
!   [89PFE/CHU]     estimate
!
!
!  
SO3+S = SO+SO2                                     5.120E+11   0.00       0.00
!     [78MUL/SCH]
!
!  
SO2 + CO = SO + CO2                                2.7e12   0    24307
!     [96GLA/KUB]
!   
SO+M = S+O+M                                       4.0e14   0    53847
!     [96GLA/KUB]
!  
SO+H+M=HSO+M                                       5.0e15   0     0
!     [96GLA/KUB]
!
SO+OH+M = HOSO+M                                   8.0E21  -2.16  418
!     [96GLA/KUB]
!
HSO+H=HSOH                                         2.5E20  -3.14  463
!     [96GLA/KUB]
!  
HSO+H = SH+OH                                      4.9E19  -1.86  785
!     [96GLA/KUB]
!  
HSO+H = S+H2O                                      1.6E9    1.37   -171
!     [96GLA/KUB]
!  
HSO+H = H2SO                                       1.8E17   -2.47  25.2
!     [96GLA/KUB]
!  
HSO+H = H2S+O                                      1.1E6     1.03   5233.8
!     [96GLA/KUB]
!
HSO+H = SO+H2                                      1.0E12    0      0
!     [96GLA/KUB]
! 
HSO+O = SO2+H                                      4.5E14   -0.4    0
!     [96GLA/KUB]
!
HSO+O = HOS + O                                    4.8E8   1.02    2687
!     [96GLA/KUB]
!
HSO+O = SO+OH                                      1.4E13   0.15    151
!     [96GLA/KUB]
!
HSO+O+M = HOSO+M                                   6.9E19   -1.61   800
!     [96GLA/KUB]
!
HSO+O+M = HSO2+M                                   1.1E19   -1.73   -25.2
!     [96GLA/KUB]
!
HSO+OH = HOSHO                                     5.2E28    -5.44   1595
!     [96GLA/KUB]
!  
HSO+OH = SO+H2O                                    1.7E9     1.03    236.5
!     [96GLA/KUB]
!  
HSO+O2 = SO2+OH                                    1.0E12     0       5032
!     [96GLA/KUB]
!  
HSOH = SH+OH                                       2.8E39    -8.75     37844
!     [96GLA/KUB]
!  
HSOH = S+H2O                                       5.8E29     -5.6   27427
!     [96GLA/KUB]
!  
HSOH = H2S+O                                       9.8E16   -3.4   43531
!     [96GLA/KUB]
!  
H2SO = H2S+O                                       4.9E28   -6.66  36083
!     [96GLA/KUB]
!  
HOSO+M = HOS+O+M                                   2.5E30   -4.8    59886
!     [96GLA/KUB]
!  
HOSO+M = SO2+H+M                                   5.9E34    -5.67  25615
!     [96GLA/KUB]
! 
HOSO+O2 = SO2+HO2                                  1.0E12     0      0
!     [96GLA/KUB]
! 
HOSO2 = HOSO+O                                     5.4E18   -2.34   53495
!     [96GLA/KUB]
! 
HOSO2 = SO3 + H                                    1.4E18   -2.91   27628
!     [96GLA/KUB]
!  
HOSO2 + O = SO3+OH                                 5.0E12      0      0
!     [96GLA/KUB]
! 
HOSO2+O2 = SO3+HO2                                 7.8E11     0     330
!     [96GLA/KUB]
!  
HOSHO = HOSO+H                                     6.4E30    -5.89   37140
!     [96GLA/KUB]
!  
HOSHO = SO+H2O                                     1.2E24   -3.59   29943
!     [96GLA/KUB]
!  
HOSHO+H = HOSO+H2                                  1.0E12     0      0
!     [96GLA/KUB]
!  
HOSHO+O = HOSO+OH                                  5.0E12     0      0
!     [96GLA/KUB]
! 
HOSHO + OH = HOSO+H2O                              1.0E12     0       0
!     [96GLA/KUB]
! 
!
H2S+M = S+H2+M                                     2.0E14   0     33214
!     [96GLA/KUB]
!
H2S+S=SH+SH                                        4.0E14  0    7599
!     [96GLA/KUB]
! 
SH+HO2=HSO+OH                                      1.0E12   0   5032
!     [96GLA/KUB]
!  
!  
HSO+NO2 = HOSO+NO                                  5.8E12   0    0
!     [96GLA/KUB]
!
!
!
!
! ************    references   ********************
!
!  
!  NIST
!  Mallard WG, Westley F, Herron JT, Hampson RF
!  NIST Chemical Kinetics Database, ver 6.0
!  NIST Standard Reference Data, Gaithersburg, MD (1994)
!
!
!  [91DOR/CAU]
!  G. Dorthe, Ph. Caubet, Th. Vias, B. Barrere and J. Marchais
!  J.Phys.Chem., 95,5109-5116,1991
!
!
!  [96GLA/KUB]
!  P. Glarborg, D. Kubel, K. Dam-Johansen, H-M. Chiang and J.W. Bozzelli
!  Int.J.Chem.Kinet., 28,773-790,1996
!
!
!  [69HAL/JEN]
!  C.J. Halstead, D.R. Jenkins
!  Trans. Faraday Soc. 65,3013,1969
!
!
!  [91CHA/GOD]
!  H.K. Chagger, P.R. Goddard, P.Murdoch and A.Williams
!  Fuel, 70,1137,1991
!
!
!  [95WOI/ROT]
!  D. Woicki and  P. Roth,
!  Int.J.Chem.Kinet., 27,59,1995
!
!
!  [92YOS/KOS]
!  M. Yoshimura, M. Koshi, H. Matsui, K. Kamiya and H. Umeyama,   
!  Chem.Phys.Lett., 199, 1992, vol 189
!
!
!  [94TSU/YOK]   
!  K. Tsuchiya, K.Yokoyama, H.Matsui, M.Oya and G.Dupre
!  J.Phys.Chem., 98,8419, 1994
!
!
!  [91TYN/RAV] 
!  G.S. Tyndall and A.R. Ravishankara,
!  Int.J.Chem.Kinet., 23,483,1991
!
!
!  [83WEN/WOO]     
!  J.O.L. Wendt, E.C. Wootan and T.L. Corley
!  Combust. Flame, 49,261,1983  
!
!
!  [82SMI/TSE]
!  O.I. Smith, S. Tseregounis and S-N. Wang
!  Int.J.Chem.Kinet., 14,679,1983
!
!
!  [92ATK/BAU]
!  R. Atkinson, D.L. Baulch, R.A. Cox, R.F. Hampson Jr., J.A. Kerr and J. Troe
!  J.Phys.Chem.Ref.Data, 21,1125,1992
!
!
!  [87CRA/MUR]
!  W. Craven and J.N. Murrell
!  J.Chem.Soc.Faraday Trans.2, 83,1733,1987
!
!
!  [80HIG/SAI]
!  T. Higashihara, K. Saito and I. Murakami
!  Bull.Chem.Soc.Jpn., 15,53,1980
!
!
!  [78MUL/SCH]
!  C.H. Muller III, K. Schofield, M. Steinberg and H.P. Broida
!  17th. Int. Symp. Combust., 867,1978
!
!




