ELEMENTS
C O H N
END
SPECIES
CH4 O2 H2O N2 CO CO2 H2
END
TRANS ALL
CH4                2   141.400     3.746     0.000     2.600    13.000          
O2                 1   107.400     3.458     0.000     1.600     3.800          
H2O                2   572.400     2.605     1.844     0.000     4.000          
N2                 1    97.530     3.621     0.000     1.760     4.000          
CO                 1    98.100     3.650     0.000     1.950     1.800          
CO2                1   244.000     3.763     0.000     2.650     2.100          
H2                 1    38.000     2.920     0.000     0.790   280.000          
END
REACTIONS
2CH4+O2=>2CO+4H2                3.91E13 0 30.0E3
  FORD /CH4 0.5/
  FORD /O2 1.25/
CH4+H2O=CO+3H2                  3.0E11 0 30.0E3
2H2+O2=>2H2O                    6.045E18 -1 40.0E3
  FORD /H2 0.25/
  FORD /O2 1.5/
CO+H2O=CO2+H2                   2.75E12 0 20.0E3
END
