ELEMENTS
N  C  H  O  
END
SPECIES
N2                C3H3              C2H2              C5H5              A1           A1-          H                 A-C3H5            
HO2               O2                C5H6              A2          O                 C2H3              CO                OH                
H2O               H2                CH3               CH4               A1C2H2            A1CH2             A1CHO             A1CH3             
HCO               A1C2H*            A2-         C2H4              A1C2H             
END
REACTIONS
C3H3 + C2H2 = C5H5                         2.350e+11    0.000   9995.22
2C3H3 = A1                          1.870e+46   -9.840  16804.49
2C3H3 = A1- + H                       5.770e+37   -7.000  31505.74
A-C3H5 + C3H3 => A1 + 2H                  2.160e+39   -7.740  23852.77
C5H5 + HO2 => O2 + C5H6                        2.561e+12    0.060   3116.63
2C5H5 => A2 + 2H                       6.390e+29   -4.030  35205.54
C5H5 + O => C2H3 + C2H2 + CO                     7.000e+13    0.000      0.00
C5H5 + HO2 => C2H3 + C2H2 + CO + OH                6.776e+29   -4.700  11658.70
C5H5 + HO2 => 2C2H2 + CO + H2O                   1.190e+33   -6.520  13401.05
C5H5 + OH => C2H3 + C2H2 + CO + H                  3.020e+13    0.000      0.00
C5H6 = C5H5 + H                            1.730e+68  -15.160 116371.89
C5H6 + H => C5H5 + H2                          2.800e+13    0.000   2258.60
C5H6 + H => A-C3H5 + C2H2                      6.600e+14    0.000  12344.65
C5H6 + O => C5H5 + OH                          4.770e+04    2.710   1106.60
C5H6 + OH => C5H5 + H2O                        3.080e+06    2.000      0.00
C5H6 + CH3 => C5H5 + CH4                       1.800e-01    4.000      0.00
A1- + O2 => C5H5 + CO + O                   2.600e+13    0.000   6120.94
A1- + O2 => 2CO + 2C2H2 + H                 3.000e+13    0.000   8979.45
A1- + O => C5H5 + CO                      1.000e+14    0.000      0.00
A1- + OH => C5H6 + CO                     3.000e+13    0.000      0.00
A1- + HO2 => C5H5 + CO + OH                 3.000e+13    0.000      0.00
A1- + C2H2 = A1C2H2                   3.290e+06    2.050   3162.05
A1 = A1- + H                     1.290e+61  -12.480 148085.56
A1 + H => A1- + H2                   6.020e+08    1.800  16352.77
A1 + OH => A1- + H2O                 4.030e+02    3.330   1455.54
A1 + CH3 => A1- + CH4                2.752e-02    4.460  13637.67
A1 + O => C5H5 + CO + H                     2.220e+13    0.000   4531.55
A1 + OH => C5H6 + CO + H                    1.320e+02    3.250   5590.34
A1CH2 = C5H5 + C2H2                        8.200e+14    0.000  80676.39
A1CH2 + H = A1- + CH3                   5.830e+67  -14.150  68329.35
A1CH2 + O => A1CHO + H                         3.310e+14    0.000      0.00
A1CH2 + HO2 => A1CHO + OH + H                    1.060e+16   -0.940   2523.90
A1CH2 + C3H3 => A2 + 2H                  4.320e+39   -7.740  23852.77
A1CH3 + H = A1 + CH3                    2.310e+06    2.170   4163.48
A1CH3 = A1CH2 + H                          1.250e+18   -0.600  94787.28
A1CH3 = A1- + CH3                     2.160e+29   -3.580 110164.91
A1CH3 + H => A1CH2 + H2                        6.470e+00    3.980   3384.32
A1CH3 + OH => A1CH2 + H2O                      1.620e+13    0.000   2770.08
A1CH3 + CH3 => A1CH2 + CH4                     4.220e+14    0.000  22256.21
A1CHO => A1- + HCO                      2.610e+15    0.150  80549.71
A1CHO + H => A1- + CO + H2                  2.050e+09    1.160   2404.40
A1CHO + CH3 => A1- + CO + CH4               2.720e+06    1.770   5920.17
A1C2H* + C2H2 = A2-                  1.340e+04    2.500   1283.46
A1C2H* + C2H4 = A2 + H                 3.620e+28   -4.240  23864.72
A1C2H = A1C2H* + H                         2.100e+60  -12.400 148076.00
A1C2H + H = A1C2H* + H2                      1.320e+08    1.880  16821.22
A1C2H + OH = A1C2H* + H2O                    1.340e+02    3.330   1455.54
A1C2H2 = A1C2H + H                         1.340e+17   -0.860  41238.05
A1C2H2 + C2H2 = A2 + H                 7.091e+13   -0.260   7002.87
A2 = A2- + H                   8.600e+60  -12.480 148076.00
A2 + H = A2- + H2                2.650e+08    1.870  17096.08
A2 + OH = A2- + H2O              9.630e+02    3.020   4373.80
END
