!------------------------------------------------------------------------------------
!
! COUNTERFLOW FLAME EXPERIMENTS AND CHEMICAL KINETIC MODELING
! OF DIMETHYL ETHER/METHANE MIXTURES
!
! HPMech v3.3 (no NOx)
!
! C.B. Reuter, R. Zhang, O.R. Yehia, Y. Rezgui, Y. Ju
!
!------------------------------------------------------------------------------------

ELEMENTS
C H O N AR HE
END

SPECIES
H            H2            CH2           CH2(S)        CH3
O            CH4           OH            H2O           C2H
C2H2         C2H3          CO            N2            C2H4
HCO          C2H5          CH2O          C2H6          CH2OH
CH3O         O2            CH3OH         HO2           H2O2
HCCO         CH2CO         HCCOH         CH2HCO        CH3CO
CO2          CH3HCO        OCHO          CH3CHOH       C2H4OH
CH3CH2O      CH3OCH2       HOCHO         CH3OCH3       C2H5OH
HOCH2O       CH3OCO        CH3OCHO       CH3OCH2O      CH3OCH2OH
OCH2OCHO     HOCH2OCO      HOC2H4O2      CH3OCH2O2     CH2OCH2O2H
CH3OCH2O2H   HO2CH2OCHO    O2CH2OCH2O2H  AR            HE
C CH HCOH C2O CH3O2 CH3O2H C3H2 C3H2SING c-C3H2 C3H3 C3H6 C4H2 pC3H4 aC3H4
c-C3H4 aC3H5 sC3H5 tC3H5 nC4H3 iC4H3 C4H4 nC4H5 iC4H5 C4H6-13 C4H6-12 C4H6-2 
H2CC CH2CHOH C5H2 HCCCHCCH H2CCCCCH C4H5C2H FC6H6 C6H6 C6H5 C2H3CHO C5H6 C2H3CO
C4H H2C4O C6H2 C6H3 l-C6H4 o-C6H4 CH3CHCHCO CH2CHCHCHO C5H5 C6H5O C6H4O2 C6H5OH
C5H4O C5H5O O(SING) O2(SING) O3 C2H4O2  CH2OCHO  HOCO 
C2H5O C2H5O2 C2H5O2H C2H4O2H C2H5CO C2H5CHO CH3CO2 CH3CO3 CH3CO3H
OCH2O2H HOCH2O2 HOCH2O2H O2CHO HO2CHO nC3H7 iC3H7 C3H8
END

REACTIONS
H+O2<=>O+OH             1.040E+14     0.000      15286.0
O+H2<=>H+OH             3.818E+12     0.000       7948.0
   DUPLICATE
O+H2<=>H+OH             8.792E+14     0.000      19170.0
   DUPLICATE
H2+OH<=>H2O+H           2.160E+08     1.510       3430.0
OH+OH<=>O+H2O           3.340E+04     2.420      -1930.0 
H2+M<=>H+H+M            4.577E+19    -1.400     104380.0
   H2/2.5/ H2O/12/ CO/1.9/ CO2/3.8/ AR/0.0/ HE/0.0/
H2+AR<=>H+H+AR          5.840E+18    -1.100     104380.0
H2+HE<=>H+H+HE          5.840E+18    -1.100     104380.0
O+O+M<=>O2+M            6.165E+15    -0.500          0.0
   H2/2.5/ H2O/12/ CO/1.9/ CO2/3.8/ AR/0.0/ HE/0.0/
O+O+AR<=>O2+AR          1.886E+13     0.000      -1788.0
O+O+HE<=>O2+HE          1.886E+13     0.000      -1788.0
O+H+M<=>OH+M            4.714E+18    -1.000          0.0
   H2/2.5/ H2O/12/ AR/0.75/ HE/0.75/ CO/1.9/ CO2/3.8/
H2O+M<=>H+OH+M          6.064E+27    -3.322     120790.0
   H2/3.0/  H2O/0.0/ HE/1.10/ N2/2.00/ O2/1.5/
   CO/1.9/ CO2/3.8/
H2O+H2O<=>H+OH+H2O      1.006E+26    -2.440     120180.0
H+O2(+M)<=>HO2(+M)      4.651E+12     0.440          0.0
                  LOW / 6.366E+20    -1.720        524.8 /
   TROE / 0.500  1.00E-30  1.00E+30 /
   H2/2.0/ H2O/14/ O2/0.78/ CO/1.9/ CO2/3.8/ AR/0.00/ HE/0.0/ C2H2/3.0/
HO2+H<=>H2+O2           2.750E+06     2.090      -1451.0
HO2+H<=>OH+OH           7.079E+13     0.000        295.0
HO2+O<=>O2+OH           2.850E+10     1.000       -723.93
HO2+OH<=>H2O+O2         2.890E+13     0.000       -497.0
HO2+HO2<=>H2O2+O2       4.200E+14     0.000      11982.0
   DUPLICATE
HO2+HO2<=>H2O2+O2       1.300E+11     0.000      -1629.3
   DUPLICATE
H2O2(+M)<=>OH+OH(+M)    2.000E+12     0.900      48749.0      
                  LOW / 2.490E+24    -2.300      48749.0/
   TROE / 0.430 1.00E-30 1.00E+30/
   H2O/7.5/ CO2/1.6/ N2/1.5/  O2/1.2/ HE/0.65/ H2O2/7.7/
   H2/3.7/ CO/2.8/
H2O2+H<=>H2O+OH         2.410E+13     0.000       3970.0
H2O2+H<=>HO2+H2         4.820E+13     0.000       7950.0
H2O2+O<=>OH+HO2         9.550E+06     2.000       3970.0
H2O2+OH<=>HO2+H2O       1.740E+12     0.000        318.0
   DUPLICATE
H2O2+OH<=>HO2+H2O       7.590E+13     0.000       7270.0
   DUPLICATE
CO+O(+M)<=>CO2(+M)      1.800E+10     0.000       2384.0
                  LOW / 4.436E+23    -2.637       4081.9 /
H2/2.0/ O2/1.0/ H2O/12.0/ CH4/2.0/ CO/1.75/ CO2/3.6/ C2H6/3.0/ AR/0.7/ HE/0.7/
CO+O2<=>CO2+O           2.530E+12     0.000      47693.0
CO+HO2<=>CO2+OH         1.570E+05     2.180      17940.0
CO+OH<=>CO2+H           7.046E+04     2.053      -276.2
DUPLICATE
CO+OH<=>CO2+H           5.757E+12    -0.664       331.9
DUPLICATE
HCO(+M)=H+CO(+M)  9.92E+16  -1.02  19895              
  LOW  /1.81E+22    -2.42    19377.6/              
  TROE    /0.856     3234    111.8   3573.2/                      
 H2/2.0/ H2O/12.0/ CO/1.50/ CO2/3.0/ AR/0.60/ N2/1.0/ HE/0.80/ CH2O/4.0/ C2H2/3.0/
HCO+O2<=>CO+HO2         1.204E+10     0.807       -727.0
HCO+H<=>CO+H2           0.900E+14     0.000          0.0
HCO+O<=>CO+OH           3.020E+13     0.000          0.0
HCO+O<=>CO2+H           3.000E+13     0.000          0.0
HCO+OH<=>CO+H2O         3.020E+13     0.000          0.0
HCO+HO2=>CO2+H+OH       1.500E+13     0.000          0.0
HCO+HO2<=>CO+H2O2       1.500E+13     0.000          0.0
HCO+HCO<=>CH2O+CO       2.000E+13     0.000          0.0
HCO+HCO=>H2+CO+CO       1.000E+13     0.000          0.0
CH2O+O2<=>HCO+HO2       5.080E+14     0.000      46297.0
CH2O(+M)<=>CO+H2(+M)    4.255E+13     0.000      71976.4
LOW / 5.055E+38   -6.100      93995.0 /
H2/2.50/ H2O/12.0/ AR/0.87/ CO/1.90/ CO2/3.80/
CH4/2.00/ C2H6/3.00/
CH2O(+M)<=>HCO+H(+M)    9.195E+15     0.000      87734.0
LOW / 1.454E+36   -5.500      93995.0 /
H2/2.50/ H2O/12.0/ AR/0.87/ CO/1.90/ CO2/3.80/
CH4/2.00/ C2H6/3.00/ 
CH2O+OH<=>HCO+H2O       7.82E+07     1.63    -1055. 
CH2O+H<=>HCO+H2         5.741E+07     1.900       2742.0
CH2O+O<=>HCO+OH         4.155E+11     0.570       2762.2
CH2O+HO2<=>HCO+H2O2     4.095E+04     2.500      10214.0
HCOH+O=>CO+H2O              8.00E+13     0.000       0.0
HCOH+OH=>CO+H2O+H           3.00E+13     0.000       0.0
HCOH+H<=>HCO+H2             3.00E+13     0.000       0.0
HCOH+H<=>CH2O+H             9.00E+13     0.000       0.0
HCOH+O2=HCO+HO2        6.00E+12     0.000       0.0                    
C+OH<=>CO+H                  5.000E+13     0.000         0.0
C+O2<=>CO+O                  6.624E+13     0.000       635.9
CH+H<=>C+H2                  1.200E+14     0.000         0.0
CH+O<=>CO+H                  3.974E+13     0.000         0.0
CH+OH<=>HCO+H                3.000E+13     0.000         0.0
CH+O2<=>CO2+H                9.900E+09      1.008      -489.9
CH+O2<=>CO+OH                6.600E+09      1.008      -489.9
CH+O2<=>HCO+O                6.600E+09      1.008      -489.9
CH+O2=>CO+O+H               9.900E+09      1.008      -489.9
CH+H2O<=>H+CH2O              4.577E+16    -1.420         0.0
CH+CO2<=>HCO+CO              6.383E+07     1.510      -715.4
CH+CH2O<=>H+CH2CO            9.635E+13     0.000      -516.7
CH+CO(+M)<=>HCCO(+M)       3.794E+00     2.500         0.0
LOW / 1.463E+15    -0.400  0.0 /
TROE / 0.600  10.0  1.0E+07  1.0E+06 / 
H2/2.0/ H2O/6.0/ CH4/2.0/ CO/1.5/ CO2/2.0/ C2H6/3.0/ AR/0.7/  
CH2+M=>C+H2+M                1.148E+14     0.000      55820.0
H2/2.0/ H2O/6.0/ CH4/2.0/ CO/1.5/ CO2/2.0/ C2H6/3.0/ AR/0.7/  
CH2+H<=>CH+H2                1.205E+14     0.000         0.0
CH2+O=>CO+H+H                1.228E+14     0.000       536.5
CH2+O<=>CO+H2                8.190E+13     0.000       536.5
CH2+OH<=>CH+H2O              8.630E+05     2.019      6776.0
CH2+OH<=>CH2O+H              2.860E+13     0.123      -162.0
CH2+O2=>CO+OH+H             5.673E+12     0.000       1779.2
CH2+O2=>CO2+H+H             3.991E+12     0.000       1766.6
CH2+O2<=>CO2+H2              3.968E+12     0.000       1908.4
CH2+O2<=>CH2O+O              2.328E+12     0.000       1501.3
CH2+O2<=>CO+H2O              6.130E+11     0.000       1453.0
CH2+H2<=>H+CH3               4.408E+05     2.300      7350.7
CH2+HO2<=>OH+CH2O            2.000E+13     0.000         0.0
CH2+CH2O<=>CH3+HCO           7.407E-02     4.210      1623.9
CH2+CH<=>H+C2H2              4.000E+13     0.000         0.0
CH2+CH2<=>C2H2+2H                        7.094E+13     0.002       8.9
CH2+CH2<=>C2H2+H2                        1.773E+13     0.002       8.9
CH2+CO2<=>CH2O+CO            2.350E+10     0.000         0.0
CH2+CO(+M)=CH2CO(+M)                     8.10E+11  0.50      4510.  
  LOW               /2.69E+33  -5.11     7095./  
  TROE/ 0.5907  275.0  1226.00  5185.00 /  
 H2/2.0/ H2O/6.0/ CH4/2.0/ CO/1.5/ CO2/2.0/ C2H6/3.0/ AR/0.7/ HE/0.8/
CH2(S)+HE<=>CH2+HE           5.37E+11  0.52       781.    
CH2(S)+AR<=>CH2+AR           1.15E+09  1.35      -393.  
CH2(S)+N2<=>CH2+N2           1.10E+10  1.13      -280.  
CH2(S)+H2<=>CH2+H2           1.07E+12  0.52       781.  
CH2(S)+O2<=>CH2+O2           1.10E+10  1.13      -280.  
CH2(S)+CO<=>CH2+CO           1.10E+10  1.13      -280.  
CH2(S)+H2O<=>CH2+H2O         5.56E+10  1.05      -274.  
CH2(S)+CO2<=>CH2+CO2         2.78E+10  1.05      -274.  
CH2(S)+C2H2<=>CH2+C2H2       0.80E+15  -0.57     -4.85  
CH2(S)+C2H4<=>CH2+C2H4       1.144E+13     0.000      -556.4
CH2(S)+CH4<=>CH2+CH4         1.867E+12     0.000      -496.8
CH2(S)+M<=>CH2+M             1.200E+13     0.000         0.0
HE/0.0/ AR/0.0/ N2/0.0/ H2/0.0/ O2/0.0/ H2O/0.0/ CO2/0.0/ CH4/0.0/
C2H2/0.0/ C2H4/0.0/ CO/0.0/
CH2(S)+H<=>CH+H2             3.000E+13     0.000         0.0
CH2(S)+O<=>H+CO+H             4.505E+13     0.000         0.0
CH2(S)+O<=>CO+H2              4.505E+13     0.000         0.0
CH2(S)+OH<=>CH2O+H           3.010E+13     0.000         0.0
CH2(S)+O2=>CO+OH+H           2.800E+13     0.000         0.0
CH2(S)+O2=>CO+H2O            1.200E+13     0.000         0.0
CH2(S)+H2<=>CH3+H            6.311E+13     0.000         0.0
CH2(S)+HO2<=>CH2O+OH         3.010E+13     0.000         0.0
CH2(S)+H2O2<=>CH3O+OH        3.010E+13     0.000         0.0
CH2(S)+CO2<=>CH2O+CO         3.000E+12     0.000         0.0
CH2(S)+H2O<=>CH2O+H2         6.820E+10     0.250      -935.0
CH3+M=>CH2+H+M          4.030E+15     0.000      84468.0
H2/2.0/ H2O/6.0/ CH4/3.0/ CO/1.5/ CO2/2.0/ C2H6/3.0/
AR/0.7/ HE/0.70/  CH3OH/3.0/
CH3+M=>CH+H2+M         3.569E+15     0.000      81046.0
H2/2.0/ H2O/6.0/ CH4/3.0/ CO/1.5/ CO2/2.0/ C2H6/3.0/
AR/0.7/ HE/0.70/  CH3OH/3.0/
CH3+O<=>CH2O+H          6.745E+13     0.000         0.0
CH3+O=>CO+H2+H          1.686E+13     0.000         0.0
CH3+OH<=>CH2+H2O        4.293E+04     2.568      3998.2
CH3+OH<=>CH2(S)+H2O          4.283E+15       -0.860     1887.5
PLOG /    0.001316     1.132E+14       -0.458     -496.2 /
PLOG /    0.013158     2.234E+14       -0.538     -220.4 /
PLOG /    0.131579     1.160E+15       -0.727      600.5 /
PLOG /    1.315789     4.283E+15       -0.860     1887.5 /
PLOG /   13.157895     4.385E+14       -0.539     2931.7 /
PLOG /  131.578947     6.091E+10        0.596     2922.8 /
CH3+OH<=>H2+CH2O            3.555E+12       -0.532     2042.3
PLOG /    0.001316     3.887E+09        0.254    -1220.7 /
PLOG /    0.013158     1.988E+10        0.060     -624.4 /
PLOG /    0.131579     2.815E+11       -0.250      498.3 /
PLOG /    1.315789     3.555E+12       -0.532     2042.3 /
PLOG /   13.157895     2.192E+12       -0.432     3415.4 /
PLOG /  131.578947     2.360E+09        0.453     3791.0 /
CH3+OH<=>H+CH2OH            1.006E+10        0.942     3295.0
PLOG /    0.001316     8.442E+09        0.963     3230.4 /
PLOG /    0.013158     8.442E+09        0.963     3230.4 /
PLOG /    0.131579     1.006E+10        0.942     3295.0 /
PLOG /    1.315789     5.601E+10        0.740     3971.0 /
PLOG /   13.157895     5.531E+11        0.486     5443.5 /
PLOG /  131.578947     2.525E+10        0.909     6402.1 /
CH3+OH<=>H+CH3O             7.926E+08        1.065    11859.0
PLOG /    0.001316     7.893E+08        1.065    11858.5 /
PLOG /    0.013158     7.893E+08        1.065    11858.5 /
PLOG /    0.131579     7.893E+08        1.065    11858.5 /
PLOG /    1.315789     7.926E+08        1.065    11859.0 /
PLOG /   13.157895     1.029E+11        1.034    11969.8/
PLOG /  131.578947     3.073E+11        0.922    12980.5 /
CH3+OH<=>H2+HCOH            6.533E+11        0.112      931.9
PLOG /    0.001316     1.210E+09        0.830    -2322.5 /
PLOG /    0.013158     6.397E+09        0.633    -1700.9 /
PLOG /    0.131579     8.000E+10        0.340     -564.6 /
PLOG /    1.315789     6.533E+11        0.112      931.9 /
PLOG /   13.157895     2.064E+11        0.295     2199.8 /
PLOG /  131.578947     9.402E+07        1.286     2423.8 /
CH3+O2<=>CH3O+O         7.546E+12     0.000     28320.0
CH3+O2<=>CH2O+OH        6.383E+11     0.000     13594.0
CH3+HO2<=>CH3O+OH       1.000E+12     0.269      -687.5
CH3+HO2<=>CH4+O2        1.155E+05     2.228     -3022.5
HCO+CH3<=>CH4+CO        6.310E+16    -1.230        500.0
CH2O+CH3<=>HCO+CH4      3.190E+01     3.360       4312.0
CH3+CH<=>H+C2H3         3.000E+13     0.000          0.0
CH3+CH2(S)<=>H+C2H4     1.200E+13     0.000       -570.0
CH3+CH2<=>H+C2H4        1.200E+15    -0.343        153.1
CH4+CH2(S)<=>CH3+CH3         1.867E+13     0.000      -496.8
CH3+CH3(+M)=C2H6(+M)    8.88E+16  -1.16      774.5   
  LOW      /3.74E+50  -9.93     7389./ 
  TROE     /0.7548 158.0 32828. 46564. /      
 H2/3.0/ H2O/9.0/ CO/2.25/ CO2/3.0/ AR/1.0/ CH4/3.0/ C2H6/4.5/ N2/1.50/ 
2CH3=H+C2H5                              5.39E+13  0  16055                    
CH3O(+M)<=>H+CH2O(+M)                  1.320E+16   -0.588    26772.1
LOW  / 1.326E+25   -2.981    22465.4 /
TROE / 0.1698 1.00E-09  807456.9  7029.4 /
H2/2.00/ H2O/6.00/ CO/1.50/ CO2/2.00/ CH4/2.00/
AR/0.663/ C2H6/3.00/ N2/1.00/ 
CH3O+H<=>CH2O+H2        3.500E+08     1.601       -708.6
DUPLICATE
CH3O+H<=>CH2O+H2        3.320E+03     2.316      -1815.2
DUPLICATE
CH3O+H<=>CH2(S)+H2O     3.280E+12     0.088       -152.6
CH3O+O=OH+CH2O          8.00E+13       0.00         0.    
CH3O+OH<=>CH2O+H2O               1.810E+13     0.000          0.0
CH3O+O2<=>CH2O+HO2      9.033E+13     0.000      11978.8
  DUPLICATE
CH3O+O2<=>CH2O+HO2      2.168E+10     0.000       1748.7
  DUPLICATE
CH3O+HO2<=>CH2O+H2O2    1.420E+04     1.506       6295.3
DUPLICATE
CH3O+HO2<=>CH2O+H2O2    7.566E-23    10.670      25357.9
DUPLICATE
CH3O+CO<=>CH3+CO2                1.570E+13     0.000      11804.0
CH3O+HCO<=>CH2O+CH2O             6.030E+12    0.000        0.0
CH3O+HCO<=>CH3OH+CO              9.040E+13    0.000        0.0
CH3O+CH2<=>CH2O+CH3              1.810E+13    0.000        0.0
CH3O+CH3<=>CH2O+CH4              2.410E+13    0.000        0.0
CH3O+CH3O<=>CH3OH+CH2O           2.000E+13    0.000        0.0
CH2OH(+M)<=>H+CH2O(+M)                 1.211E-02    4.680    32592.0
LOW  / 1.924E+29   -4.037    33697.4 /
TROE / 0.1680 1.0E-09  3619.5  10985.0 /
H2/2.0/ H2O/6.0/ CO/1.5/ CO2/2.0/ CH4/2.0/ AR/0.665/ C2H6/3.0/ N2/1.0/
 CH3OH/3.0/
CH2OH<=>CH3O                    3.797E+22   -4.681    35559.6
PLOG /    0.001       1.158E+18   -4.592    36016.8 /
PLOG /    0.010       3.810E+19   -4.628    35229.3 /
PLOG /    0.100       2.870E+21   -4.771    35111.7 /
PLOG /    1.000       3.797E+22   -4.681    35559.6 /
PLOG /    5.000       9.756E+22   -4.499    36133.6 /
PLOG /   10.000       1.449E+23   -4.416    36465.8 /
PLOG /   50.000       2.935E+23   -4.199    37365.2 /
PLOG /  100.000       2.423E+23   -4.046    37725.5 /
CH2OH+H<=>CH2O+H2       3.810E+06     1.870       134.0
DUPLICATE
CH2OH+H<=>CH2O+H2       6.840E+03     2.281     -1394.9
DUPLICATE
CH2OH+H<=>CH2(S)+H2O    9.020E+09     0.870      -785.9
CH2OH+H<=>CH3O+H        2.460E+07     1.595      7194.1
CH2OH+O<=>CH2O+OH       6.564E+13     0.000       -693.2
CH2OH+OH<=>H2O+CH2O     2.40E+13      0.000         0.0
CH2OH+O2<=>CH2O+HO2     8.130E+09     0.890       -866.1  
CH2OH+HO2<=>CH2O+H2O2      1.222E+12      0.257       -689.4
CH2OH+HCO<=>CH2O+CH2O   1.500E+13     0.000         0.0
CH2OH+HCO<=>CH3OH+CO    1.200E+13     0.000         0.0
CH2OH+CH2<=>OH+C2H4       2.410E+13     0.000         0.0
CH2OH+CH2<=>CH2O+CH3              1.210E+13     0.000          0.0
CH2OH+CH3<=>CH2O+CH4              2.410E+12     0.000          0.0
CH2OH+CH3O<=>CH2O+CH3OH 2.400E+13     0.000         0.0
CH2OH+CH2OH<=>CH2O+CH3OH 9.033E+12    0.000         0.0
CH3+H(+M)=CH4(+M)        3.41E+14    0.00   291.95
LOW    /8.87E+35   -5.52  4411.25/
TROE   /0.419  3165.06   177.35   204926.14/
H2/3.0/ H2O/9.0/ CO/2.30/ CO2/4.0/ AR/1.0/ CH4/3.0/
C2H6/4.0/ N2/1.50/ HE/1.0/ CH3OH/6.0/ O2/1.5/
CH4+H<=>CH3+H2          4.083E+03     3.156      8755.6
CH4+O<=>CH3+OH          4.396E+05     2.500      6577.6
CH4+OH<=>CH3+H2O        1.000E+06     2.180      2446.0
CH4+HO2<=>CH3+H2O2      1.120E+01     3.740     21009.7
CH4+CH2<=>CH3+CH3       2.460E+06     2.000      8270.0
CH3OH(+M)<=>CH3+OH(+M)                            2.084E+18    -0.615   92549.9
LOW/ 3.789E+52   -9.547  105313.1 /
TROE/ 0.250  956.7  4213.7  9443.3 /
AR/0.70/ H2/2.00/ H2O/6.00/ CH4/2.00/ CO/1.50/ CO2/2.00/ C2H6/3.00/
CH3OH/3.0/ 
CH3OH(+M)<=>CH2(S)+H2O(+M)                        5.246E+18    -1.135   91160.8
LOW/ 2.308E+50    -9.145  99105.9 /
TROE/  0.539  1538.8  3.4  13918.0 /
AR/0.70/ H2/2.00/ H2O/6.00/ CH4/2.00/ CO/1.50/ CO2/2.00/ C2H6/3.00/
CH3OH/3.0/ 
CH3OH(+M)<=>CH2O+H2(+M)                           1.660E+12     0.199   89678.5
LOW/ 6.190E+25    -2.750  84971.1 /
TROE/  0.014  737.2  740.2  206499.5 /
AR/0.70/ H2/2.00/ H2O/6.00/ CH4/2.00/ CO/1.50/ CO2/2.00/ C2H6/3.00/
CH3OH/3.0/ 
CH3OH(+M)<=>HCOH+H2(+M)                           2.917E+07     1.950   85035.0
LOW/ 7.786E+37    -5.994  86236.9 /
TROE/  0.686  1718.3  153.9  499615.0 /
AR/0.70/ H2/2.00/ H2O/6.00/ CH4/2.00/ CO/1.50/ CO2/2.00/ C2H6/3.00/
CH3OH/3.0/ 
CH3OH<=>CH2OH+H                        4.089E+44   -9.428   107414.2 
PLOG /     0.000132      3.110E+34   -7.944   111085.7 /
PLOG /     0.001320      1.110E+37   -8.323   109174.3 /
PLOG /     0.013200      6.733E+38   -8.510   107101.1 /
PLOG /     0.132000      4.959E+41   -8.969   105978.8 /
PLOG /     1.320000      4.086E+44   -9.382   107251.7 /
PLOG /    13.200000      4.080E+45   -9.263   109268.3 /
PLOG /   132.000000      7.717E+43   -8.419   110568.1 /
PLOG / 13200.000000      1.638E+29   -3.838   105074.8 /
CH3OH<=>CH3O+H                         3.068E+34   -7.332   116789.8 
PLOG /     0.000132      9.241E+28   -7.012   134030.3 /
PLOG /     0.001320      9.218E+28   -6.689   130040.2 /
PLOG /     0.013200      2.179E+30   -6.772   127194.7 /
PLOG /     0.132000      3.517E+31   -6.819   121849.3 /
PLOG /     1.320000      3.053E+34   -7.292   115732.5 /
PLOG /    13.200000      2.060E+39   -8.158   114301.0 /
PLOG /   132.000000      3.311E+42   -8.531   117206.4 /
PLOG / 13200.000000      5.484E+39   -6.946   123154.3 /
CH3OH+H<=>CH2OH+H2               6.564E+04    2.728     4451.3 
CH3OH+H<=>CH3O+H2                4.107E+04    2.658     9226.6
CH3OH+H<=>CH3+H2O                2.957E+05    2.485    20627.0 
CH3OH+O<=>CH2OH+OH                3.332E+06    2.146     3050.3
CH3OH+O<=>CH3O+OH                 4.322E+02    3.050     3528.5
CH3OH+OH<=>CH2OH+H2O             1.504E+08    1.440      113.0  
CH3OH+OH<=>CH3O+H2O              2.783E+07    1.440      113.0
CH3OH+O2<=>CH2OH+HO2             3.580E+05    2.270    42736.0
CH3OH+HO2<=>CH3O+H2O2            2.368E+02    3.204    20558.3
DUPLICATE
CH3OH+HO2<=>CH3O+H2O2            1.210E-02    4.157    16677.5
DUPLICATE
CH3OH+HO2<=>CH2OH+H2O2           2.404E-01    4.086    12842.3  
DUPLICATE
CH3OH+HO2<=>CH2OH+H2O2           6.977E-10    6.172     7030.3    
DUPLICATE
CH3OH+HCO<=>CH2OH+CH2O           9.690E+03    2.900    13116.0
CH3OH+HCO<=>CH3O+CH2O            9.690E+02    2.900    13116.0
CH3OH+CH<=>CH2+CH3O              4.522E+17   -1.930        0.0
CH3OH+CH<=>CH2+CH2OH             8.592E+18   -1.930        0.0
CH3OH+CH2<=>CH3+CH3O             1.443E+01    3.100     6935.0
CH3OH+CH2<=>CH3+CH2OH            3.192E+01    3.200     7174.0
CH3OH+CH3<=>CH2OH+CH4            7.490E+00    3.493     7808.5
DUPLICATE
CH3OH+CH3<=>CH2OH+CH4            2.079E-12    6.622     1603.2
DUPLICATE
CH3OH+CH3<=>CH3O+CH4             6.475E+03    2.338     8761.0
DUPLICATE
CH3OH+CH3<=>CH3O+CH4             8.513E-09    5.089     2844.2
DUPLICATE
CH3OH+CH3O<=>CH2OH+CH3OH         3.010E+11    0.000     4074.1
CH3OH+CH2(S)<=>C2H4+H2O             1.000E+13    0.000        0.0
CH3OH+CH2(S)<=>CH3+CH2OH            1.000E+14    0.000        0.0
CH3+O2(+M)<=>CH3O2(+M)  7.812E+09     0.900         0.0
                  LOW / 6.850E+24    -3.000         0.0 / 
TROE / 0.6000 1000.0 70.0 1700.0 /
H2/2.0/ H2O/6.0/ CH4/3.0/ CO/1.5/ CO2/2.0/ C2H6/3.0/
AR/0.7/ HE/0.70/  CH3OH/3.0/
CH3O2+CH2O<=>CH3O2H+HCO   1.990E+12     0.000     11660.0                          
CH4+CH3O2<=>CH3+CH3O2H       1.810E+11     0.000     18480.0
CH3OH+CH3O2<=>CH2OH+CH3O2H   1.810E+12     0.000     13710.0
CH3O2+CH3<=>CH3O+CH3O        5.080E+12     0.000     -1411.0
CH3O2+HO2<=>CH3O2H+O2        2.470E+11     0.000     -1570.0
CH3O2+CH3O2=>CH2O+CH3OH+O2   5.118E+09    -0.105     -2544.5
CH3O2+CH3O2=>O2+CH3O+CH3O    1.257E+11    -0.097      -316.0
CH3O2+H<=>CH3O+OH            9.600E+13     0.000         0.0
CH3O2+O<=>CH3O+O2            3.600E+13     0.000         0.0
CH3O2+OH<=>CH3OH+O2          6.000E+13     0.000         0.0
CH3O2H<=>CH3O+OH             6.310E+14     0.000     42300.0
H2+CH3O2<=>H+CH3O2H          1.500E+14     0.000     26030.0
C2H+H(+M)=C2H2(+M)                       1.00E+17  -1.00        0.  
  LOW  /3.75E+33      -4.80     1900./
  TROE /0.6464 132 1315 5566/                    
  H2/2.0/ H2O/6.0/ CH4/2.0/ CO/1.5/ CO2/2.0/ C2H6/3.0/ AR/0.7/ HE/0.8/    
C2H+O=CH+CO                              6.00E+13  0.00       0.  
C2H+OH<=>H+HCCO                      2.000E+13     0.000      0.0
C2H+O2<=>HCO+CO                      1.626E+14    -0.350      0.0
C2H+H2<=>H+C2H2                      2.108E+06     2.320    882.3
C2H+HO2<=>HCCO+OH                    1.806E+13     0.000      0.0
C2H+HCO=C2H2+CO        6.00E+13    0  0                  
C2H+CH3=C3H3+H        5.00E+13    0  0                  
C2H+CH4<=>CH3+C2H2                   2.168E+10     0.940    651.8
C2H+CH3OH=C2H2+CH2OH                     6.03E+13  0.00        0.  
C2H+CH3OH=C2H2+CH3O                      1.21E+13  0.00        0.    
C2O+H<=>CH+CO                        5.000E+13     0.000      0.0
C2O+O<=>CO+CO                        5.000E+13     0.000      0.0
C2O+OH=>CO+CO+H                      2.000E+13     0.000      0.0
C2O+O2=>CO+CO+O                      2.000E+13     0.000      0.0
HCCO+O2=>CO2+CO+H                    4.780E+12    -0.140    1150.0
HCCO+O2=>CO+CO+OH                    1.910E+11    -0.020    1023.0
HCCO+O2=>O+CO+HCO                    2.180E+02     2.690    3541.0
HCCO+OH<=>C2O+H2O                    3.000E+13     0.000      4.1  
HCCO+CH<=>C2H2+CO                    5.000E+13     0.000      0.0
HCCO+CH2<=>C2H3+CO                   3.000E+13     0.000      0.0
HCCO+HCCO=>C2H2+CO+CO                1.000E+13     0.000      0.0
HCCO+O=>H+CO+CO                      7.038E+13     0.000   -223.4
HCCO+O<=>CH+CO2                      2.951E+13     0.000   1112.8
HCCO+H<=>CH2(S)+CO                   0.70E+14     0.000      0.0
C2H2+O<=>CH2+CO                      2.349E+08     1.400   2205.8
C2H2+O<=>HCCO+H                      9.394E+08     1.400   2205.8
C2H2+OH<=>C2H+H2O                    2.632E+06     2.140  17062.1
C2H2+OH<=>H+HCCOH                    2.415E+06     2.000  12714.1
PLOG /   0.010   2.800E+05     2.280  12420.0 /
PLOG /   0.025   7.467E+05     2.160  12549.2 /
PLOG /   0.100   1.776E+06     2.040  12670.4 /
PLOG /   1.000   2.415E+06     2.000  12714.1 /
PLOG /  10.000   3.210E+06     1.970  12811.5 /
PLOG / 100.000   7.347E+06     1.890  13604.4 /
C2H2+OH<=>CH2CO+H                    7.528E+06     1.550   2106.4
PLOG /   0.010   1.578E+03     2.560   -844.6 /
PLOG /   0.025   1.518E+04     2.280   -292.1 /
PLOG /   0.100   3.017E+05     1.920    598.1 /
PLOG /   1.000   7.528E+06     1.550   2106.4 /
PLOG /  10.000   5.101E+06     1.650   3400.1 /
PLOG / 100.000   1.457E+04     2.450   4477.2 /
C2H2+OH<=>CH3+CO                     1.277E+09     0.730   2579.4
PLOG /   0.010   4.757E+05     1.680   -329.9 /
PLOG /   0.025   4.372E+06     1.400    226.5 /
PLOG /   0.100   7.648E+07     1.050   1114.8 /
PLOG /   1.000   1.277E+09     0.730   2579.4 /
PLOG /  10.000   4.312E+08     0.920   3735.9 /
PLOG / 100.000   8.250E+05     1.770   4697.7 /
C2H2+O2<=>C2H+HO2                    1.204E+13     0.000  74520.0
C2H2+HO2<=>CH2CO+OH                  6.022E+09     0.000   7948.8
C2H2+CH=C3H2+H        1.00E+14  0  0  
C2H2+CH2=C3H3+H                      1.20E+13      0.00   6620.00    
C2H2+CH2(S)=C3H3+H                   3.97E+15      -0.57     -4.85 
C2H2+CH3 = pC3H4+H                           4.50E+06     1.86    11600.0  
PLOG /    0.1     4.50E+06     1.86    11600.0/
PLOG /    1.0     2.56E+09     1.10    13644.0/
PLOG /    2.0     2.07E+10     0.85    14415.0/
PLOG /    5.0     2.51E+11     0.56    15453.0/
PLOG /    10.0     1.10E+12     0.39    16200.0/
PLOG /    100.0     2.10E+12     0.37    18100.0/
C2H2+CH3 = aC3H4+H                           2.40E+09     0.91    20700.0  
PLOG /    0.1     2.40E+09     0.91    20700.0/
PLOG /    1.0     5.14E+09     0.86    22153.0/
PLOG /    2.0     1.33E+10     0.75    22811.0/
PLOG /    5.0     9.20E+10     0.54    23950.0/
PLOG /    10.0    5.10E+11     0.35    25000.0/
PLOG /    100.0   7.30E+12     0.11    28500.0/
C2H2+CH3 = tC3H5                           6.80E+20    -4.16    18000.0 
PLOG /    0.1     6.80E+20    -4.16    18000.0 /
PLOG /    1.0     4.99E+22    -4.39    18850.0 /
PLOG /    2.0     6.00E+23    -4.60    19571.0/
PLOG /    5.0     7.31E+25    -5.06    21150.0/
PLOG /    10.0    9.30E+27    -5.55    22900.0/
PLOG /    100.0   3.80E+36    -7.58    31300.0/
C2H2+CH3 = sC3H5                           1.40E+32    -7.14    10000.0  
PLOG /    0.1     1.40E+32    -7.14    10000.0/
PLOG /    1.0     3.20E+35    -7.76    13300.0/
PLOG /    10.0    2.40E+38    -8.21    17100.0/
PLOG /    100.0   1.40E+39    -8.06    20200.0/
C2H2+CH3 = aC3H5                             8.20E+53    -13.32   33200.0  
PLOG /    0.1     8.20E+53    -13.32   33200.0/
PLOG /    1.0     2.68E+53    -12.82   35730.0/
PLOG /    2.0     3.64E+52    -12.46   36127.0/
PLOG /    5.0     1.04E+51    -11.89   36476.0/
PLOG /    10.0    4.40E+49    -11.40   36700.0/
PLOG /    100.0   3.80E+44     -9.63   37600.0/
C2H2+C2H=C4H2+H                      9.00E+13     0.00        0.  
C2H2+C2H (+M) = nC4H3 (+M)                   8.300E+10    0.899   -363.00  
    LOW   /1.240E+31   -4.718   1871.00  /
    TROE  /1.0 100. 5613. 13387.         /
    H2/2.0/ H2O/6.0/ CH4/2.0/ CO/1.5/ CO2/2.0/ C2H6/3.0/ 
    C2H2/2.5/ C2H4/2.5/  
 C2H2+C2H (+M) = iC4H3 (+M)                   8.300E+10    0.899    -363.00 
    LOW   /1.240E+31   -4.718    1871.00 /
    TROE   /1.0 100. 5613. 13387.        /
    H2/2.0/ H2O/6.0/ CH4/2.0/ CO/1.5/ CO2/2.0/ C2H6/3.0/ 
    C2H2/2.5/ C2H4/2.5/ 
C2H2(+M)<=>H2CC(+M)                  8.000E+14    -0.520  50750.0
LOW / 2.450E+15    -0.640  49700.0 /
H2/2.00/ H2O/6.00/ CH4/2.00/ CO/1.50/ CO2/2.00/ C2H6/3.00/ C2H2/2.50/ C2H4/2.50/
H2CC+O2<=>CH2+CO2                    1.000E+13     0.000      0.0
H2CC+H<=>C2H2+H                      1.000E+14     0.000      0.0
H2CC+OH<=>CH2CO+H                    2.000E+13     0.000      0.0
H2CC+O<=>CH2+CO                      1.000E+14     0.000      0.0
CH2CO+H<=>CH3+CO                     1.500E+09     1.450    2780.0
CH2CO+O<=>CH2+CO2                    1.084E+12     0.000    1351.3
CH2CO+O<=>CH2O+CO                    3.613E+11     0.000    1351.3
CH2CO+O<=>HCO+HCO                    3.613E+11     0.000    1351.3
CH2CO+OH<=>CH3+CO2                   6.745E+11     0.000   -1013.0
CH2CO+OH<=>CH2OH+CO                  1.012E+12     0.000   -1013.0
CH2CO+OH<=>HCCO+H2O                  7.500E+12     0.000    2000.0
CH2(S)+CH2CO<=>C2H4+CO 1.600E+14 0.000 0.000E+00
H+HCCOH<=>H+CH2CO                    6.000E+13     0.000      0.0
OH+HCCOH=H2O+HCCO      2.000E+13     0.000      0.0                    
O+HCCOH=HCCO+OH        8.000E+13     0.000      0.0  
H+C2H2(+M)=C2H3(+M)               1.71E+10  1.266     2709. 
  LOW               /6.35E+31      -4.664     3780./
  TROE/ 0.78784  -1.021E4 1.0E-30/
 H2/2.5/ H2O/7.5/ CO/1.80/ CO2/3.8/ AR/1.0/ C2H2/3.0/ O2/1.20/ N2/1.20/ CH4/3.0/ HE/1.0/ 
H+C2H3(+M)=C2H4(+M)                      6.08E+12  0.27      280.  
  LOW                                  /1.40E+30      -3.86     3320./
  TROE /0.782 207.5 2663 6095/                    
  H2/2.0/ H2O/6.0/ CH4/2.0/ CO/1.5/ CO2/2.0/ C2H6/3.0/ AR/0.7/ HE/0.8/  
C2H3+H=H2+C2H2                         4.00E+13       0.00        0.  
C2H3+O<=>CH2CO+H                     1.030E+13     0.205    -848.5
C2H3+O<=>OH+C2H2                     1.030E+12     0.205    -848.5
C2H3+O2<=>HCO+CH2O                   3.130E+14    -0.653    268.7
C2H3+O2=>H+CO+CH2O                   2.190E+14    -0.653    268.7
C2H3+O2<=>CH2HCO+O                   7.520E+08     0.965   -137.4
C2H3+OH<=>C2H2+H2O                   3.011E+13     0.000      0.0
C2H3+OH<=>CH2HCO+H                   3.011E+13     0.000      0.0
C2H3+HO2<=>CH2HCO+OH                 1.000E+13     0.000      0.0
C2H3+CH2O<=>C2H4+HCO                 5.420E+03     2.810   5862.2
C2H3+HCO<=>C2H4+CO                   1.033E+13     0.000      0.0
C2H3+CH2=CH3+C2H2    2.00E+13    0  0  
C2H3+CH3=C2H2+CH4                    9.00E+12      0.000     -770. 
C2H3+CH3(+M)=C3H6(+M)                2.50E+13       0.000       0.00 
 LOW  / 4.270E+58  -11.940    9769.80 /
 TROE / 0.175  1340.6 60000.0 10139.8 /
 H2/2/ H2O/6/ CH4/2/ CO/1.5/ CO2/2/ C2H6/3/ AR/0.7/C2H2/3.00/ C2H4/3.00/ HE/0.7/
C2H3 + C2H2 = C4H4 + H                       7.20E+13     -0.48    6100.   
 PLOG  /0.013     7.20E+13     -0.48    6100./
 PLOG  /0.118     4.60E+16     -1.25    8400./
 PLOG  /1.00      2.00E+18     -1.68   10600. /
 PLOG  /10.00     4.90E+16     -1.13   11800./
C2H3 + C2H2 = nC4H5                          1.10E+31     -7.14    5600.   
 PLOG  /0.013     1.10E+31     -7.14    5600./
 PLOG  /0.118     2.40E+31     -6.95    5600./
 PLOG  /1.00      9.30E+38     -8.76   12000. /
 PLOG  /10.00     8.10E+37     -8.09   13400./