ELEMENTS
N  O  H  C  
END
SPECIES
N2          O           H           OH          H2          
O2          H2O         H2O2        HO2         CH2GSG      
CH2O        CH3         CO          CH3O        C2H5        
CH4         C2H4        C2H6        CO2         HCO         
CH3O2       CH3O2H      C2H2        HCCO        C2H3        
CH2CHO      C3H5XA      C3H6        C3H5O       IXC3H7      
NXC3H7      C3H8        IXC3H7O2    NXC3H7O2    
END
TRANS ALL
N2                 0   97.530      3.621     0.000     0.000     0.000          
O                  0   80.000      2.750     0.000     0.000     0.000          
H                  0   145.000     2.050     0.000     0.000     0.000          
OH                 0   80.000      2.750     0.000     0.000     0.000          
H2                 0   38.000      2.920     0.000     0.000     0.000          
O2                 0   107.400     3.458     0.000     0.000     0.000          
H2O                0   572.400     2.605     0.000     0.000     0.000          
H2O2               0   107.400     3.458     0.000     0.000     0.000          
HO2                0   107.400     3.458     0.000     0.000     0.000          
CH2GSG             0   144.000     3.800     0.000     0.000     0.000          
CH2O               0   498.000     3.590     0.000     0.000     0.000          
CH3                0   144.000     3.800     0.000     0.000     0.000          
CO                 0   98.100      3.650     0.000     0.000     0.000          
CH3O               0   417.000     3.690     0.000     0.000     0.000          
C2H5               0   247.500     4.350     0.000     0.000     0.000          
CH4                0   141.400     3.746     0.000     0.000     0.000          
C2H4               0   238.400     3.496     0.000     0.000     0.000          
C2H6               0   247.500     4.350     0.000     0.000     0.000          
CO2                0   244.000     3.763     0.000     0.000     0.000          
HCO                0   498.000     3.590     0.000     0.000     0.000          
CH3O2              0   481.800     3.626     0.000     0.000     0.000          
CH3O2H             0   481.800     3.626     0.000     0.000     0.000          
C2H2               0   265.300     3.721     0.000     0.000     0.000          
HCCO               0   150.000     2.500     0.000     0.000     0.000          
C2H3               0   265.300     3.721     0.000     0.000     0.000          
CH2CHO             0   436.000     3.970     0.000     0.000     0.000          
C3H5XA             0   316.000     4.220     0.000     0.000     0.000          
C3H6               0   307.800     4.140     0.000     0.000     0.000          
C3H5O              0   411.000     4.820     0.000     0.000     0.000          
IXC3H7             0   303.400     4.810     0.000     0.000     0.000          
NXC3H7             0   303.400     4.810     0.000     0.000     0.000          
C3H8               0   303.400     4.810     0.000     0.000     0.000          
IXC3H7O2           0   454.761     5.132     0.000     0.000     0.000          
NXC3H7O2           0   481.500     4.997     0.000     0.000     0.000          
END
REACTIONS
! Reac    1
O+H+M=>OH+M                              4.720e+18   -1.000      0.00
H2/2.5/ 
H2O/12.0/ 
CO2/3.8/ 
CO/1.9/ 

! Reac    2
O+H2=>H+OH                               5.080e+04    2.670   6292.07
! Reac    3
H+OH=>O+H2                               2.231e+04    2.670   4196.94
! Reac    4
2O+M=>O2+M                               6.170e+15   -0.500      0.00
H2/2.5/ 
H2O/12.0/ 
CO2/3.8/ 
CO/1.9/ 

! Reac    5
OH+H2=>H+H2O                             2.160e+08    1.510   3429.97
! Reac    6
H+H2O=>OH+H2                             9.352e+08    1.510  18580.07
! Reac    7
2OH(+M)<=>H2O2(+M)                       1.236e+14   -0.370      0.00
H2/2.5/ 
H2O/12.0/ 
CO2/3.8/ 
CO/1.9/ 
     LOW  / 3.041e+30   -4.630   2049.00 / 
     TROE/   0.47  100.0  2000.0  1e+15  /
! Reac    8
H+OH+M=>H2O+M                            2.250e+22   -2.000      0.00
H2/2.5/ 
H2O/12.0/ 
CO2/3.8/ 
CO/1.9/ 

! Reac    9
O+H2O=>2OH                               2.970e+06    2.020  13400.10
! Reac   10
2OH=>O+H2O                               3.013e+05    2.020  -3849.90
! Reac   11
H+O2=>O+OH                               1.970e+14    0.000  16539.91
! Reac   12
O+OH=>H+O2                               1.555e+13    0.000    424.95
! Reac   13
H+O2(+M)<=>HO2(+M)                       1.475e+12    0.600      0.00
H2/2.5/ 
H2O/12.0/ 
CO2/3.8/ 
CO/1.9/ 
     LOW  / 3.500e+16   -0.410  -1115.92 / 
     TROE/   0.5  0.0  1e+30  1e+100  /
! Reac   14
HO2+H=>2OH                               7.080e+13    0.000    299.95
! Reac   15
2HO2=>H2O2+O2                            4.200e+14    0.000  11979.92
     DUPLICATE
! Reac   16
HO2+H=>H2+O2                             1.660e+13    0.000    820.03
! Reac   17
HO2+OH=>H2O+O2                           2.890e+13    0.000   -500.00
! Reac   18
H2O+O2=>HO2+OH                           6.888e+15   -0.330  72140.06
! Reac   19
2HO2=>H2O2+O2                            1.300e+11    0.000  -1629.06
     DUPLICATE
! Reac   20
HO2+O=>OH+O2                             3.250e+13    0.000      0.00
! Reac   21
OH+O2=>HO2+O                             7.857e+14   -0.330  55390.06
! Reac   22
H2O2+OH=>H2O+HO2                         1.000e+12    0.000      0.00
     DUPLICATE
! Reac   23
H2O2+H=>H2O+OH                           2.410e+13    0.000   3969.89
! Reac   24
H2O2+OH=>H2O+HO2                         5.800e+14    0.000   9559.99
     DUPLICATE
! Reac   25
H2O+HO2=>H2O2+OH                         9.771e+13    0.330  41020.08
     DUPLICATE
! Reac   26
H2O2+O=>OH+HO2                           9.550e+06    2.000   3969.89
! Reac   27
H2O2+H=>H2+HO2                           4.820e+13    0.000   7950.05
! Reac   28
H2+HO2=>H2O2+H                           1.875e+12    0.330  24260.04
! Reac   29
CH2GSG+OH=>CH2O+H                        3.000e+13    0.000      0.00
! Reac   30
CH2GSG+H2=>CH3+H                         7.000e+13    0.000      0.00
! Reac   31
CH3+H=>CH2GSG+H2                         2.482e+17   -0.890  16130.02
! Reac   32
CH2GSG+O2=>CO+OH+H                       7.000e+13    0.000      0.00
! Reac   33
CH2GSG+O=>CO+2H                          3.000e+13    0.000      0.00
! Reac   34
CH3+HO2=>CH3O+OH                         1.100e+13    0.000      0.00
! Reac   35
CH3+O2=>CH2O+OH                          7.470e+11    0.000  14250.00
! Reac   36
CH3+O2=>CH3O+O                           1.995e+18   -1.570  29210.09
! Reac   37
CH3O+O=>CH3+O2                           3.585e+18   -1.590  -1630.98
! Reac   38
2CH3<=>H+C2H5                            6.840e+12    0.100  10599.90
! Reac   39
CH3+HO2=>CH4+O2                          3.600e+12    0.000      0.00
! Reac   40
CH3+O=>CH2O+H                            8.000e+13    0.000      0.00
! Reac   41
CH3+OH=>CH2O+H2                          2.250e+13    0.000   4299.95
! Reac   42
CH3+OH=>CH2GSG+H2O                       2.650e+13    0.000   2185.95
! Reac   43
CH2GSG+H2O=>CH3+OH                       3.236e+10    0.890   1211.04
! Reac   44
CH3+H2O2=>CH4+HO2                        3.365e+11   -0.330   2501.91
! Reac   45
CH2GSG+CH3=>C2H4+H                       2.000e+13    0.000      0.00
! Reac   46
CH3+H(+M)=>CH4(+M)                       2.138e+15   -0.400      0.00
H2/2.0/ 
H2O/5.0/ 
CO2/3.0/ 
CO/2.0/ 
     LOW  / 3.310e+30   -4.000   2108.03 / 
     TROE/   0.0  0.0  0.0  40.0  /
! Reac   47
2CH3(+M)<=>C2H6(+M)                      9.214e+16   -1.170    635.76
H2/2.0/ 
H2O/5.0/ 
CO2/3.0/ 
CO/2.0/ 
     LOW  / 1.135e+36   -5.246   1705.07 / 
     TROE/   0.405  1120.0  69.6  1e+15  /
! Reac   48
CH2GSG+CH4=>2CH3                         4.000e+13    0.000      0.00
! Reac   49
2CH3=>CH2GSG+CH4                         5.429e+15   -0.890  15650.10
! Reac   50
CH4+O=>CH3+OH                            3.150e+12    0.500  10289.91
! Reac   51
CH3+OH=>CH4+O                            5.296e+10    0.500   7715.11
! Reac   52
CH4+H=>CH3+H2                            1.727e+04    3.000   8223.95
! Reac   53
CH3+H2=>CH4+H                            6.610e+02    3.000   7744.02
! Reac   54
CH4+OH=>CH3+H2O                          1.930e+05    2.400   2106.12
! Reac   55
CH3+H2O=>CH4+OH                          3.199e+04    2.400  16780.11
! Reac   56
CO+HO2=>CO2+OH                           3.010e+13    0.000  23000.00
! Reac   57
CO+O2=>CO2+O                             1.620e+13    0.000  47700.05
! Reac   58
CO2+O=>CO+O2                             1.433e+14    0.000  53919.93
! Reac   59
CO+OH=>CO2+H                             1.400e+05    1.950  -1347.04
! Reac   60
CO2+H=>CO+OH                             1.568e+07    1.950  20989.96
! Reac   61
CO+O(+M)=>CO2(+M)                        1.800e+10    0.000   2384.08
H2/2.5/ 
H2O/12.0/ 
CO2/3.8/ 
CO/1.9/ 
     LOW  / 1.350e+24   -2.788   4190.97 / 
     TROE/   1.0  1.0  10000000.0  10000000.0  /
! Reac   62
HCO+CH3=>CH4+CO                          1.210e+14    0.000      0.00
! Reac   63
HCO+H=>CO+H2                             7.340e+13    0.000      0.00
! Reac   64
HCO+O2=>CO+HO2                           7.580e+12    0.000    409.89
! Reac   65
HCO+O=>CO+OH                             3.020e+13    0.000      0.00
! Reac   66
HCO+O=>CO2+H                             3.000e+13    0.000      0.00
! Reac   67
HCO+M=>H+CO+M                            1.860e+17   -1.000  17000.00
H2/2.5/ 
H2O/6.0/ 
CO2/3.8/ 
CO/1.9/ 

! Reac   68
H+CO+M=>HCO+M                            6.467e+13    0.000   -441.92
H2/2.5/ 
H2O/6.0/ 
CO2/3.8/ 
CO/1.9/ 

! Reac   69
HCO+OH=>CO+H2O                           1.020e+14    0.000      0.00
! Reac   70
CH2O+H=>HCO+H2                           9.334e+08    1.500   2976.10
! Reac   71
CH2O+O2=>HCO+HO2                         2.050e+13    0.000  38950.05
! Reac   72
CH2O+OH=>HCO+H2O                         3.430e+09    1.180   -446.94
! Reac   73
CH2O+HO2=>HCO+H2O2                       5.820e-03    4.530   6556.88
! Reac   74
CH2O+O=>HCO+OH                           4.160e+11    0.570   2761.95
! Reac   75
CH2O+CH3=>HCO+CH4                        3.636e-06    5.420    998.09
! Reac   76
CH3O(+M)=>CH2O+H(+M)                     5.450e+13    0.000  13500.00
     LOW  / 2.344e+25   -2.700  30599.90 / 
     TROE/   1.0  1.0  10000000.0  10000000.0  /
! Reac   77
CH3O+O2=>CH2O+HO2                        5.500e+10    0.000   2424.00
! Reac   78
CH2GSG+CO2=>CH2O+CO                      3.000e+12    0.000      0.00
! Reac   79
CH3O2+CH3=>2CH3O                         7.000e+12    0.000  -1000.00
! Reac   80
CH3O2+HO2=>CH3O2H+O2                     1.750e+10    0.000  -3275.10
! Reac   81
2CH3O2=>O2+2CH3O                         1.400e+16   -1.610   1859.94
! Reac   82
CH3O2+CH2O=>CH3O2H+HCO                   1.990e+12    0.000  11659.89
! Reac   83
CH3O2+M=>CH3+O2+M                        4.343e+27   -3.420  30469.89

! Reac   84
CH3+O2+M=>CH3O2+M                        5.440e+25   -3.300      0.00

! Reac   85
CH3O2H=>CH3O+OH                          6.310e+14    0.000  42299.95
! Reac   86
CH3O+OH=>CH3O2H                          1.166e+11    0.600  -1771.03
! Reac   87
C2H2+O2=>HCCO+OH                         2.000e+08    1.500  30099.90
! Reac   88
C2H2+O=>HCCO+H                           1.430e+07    2.000   1900.10
! Reac   89
C2H3+O2=>CH2CHO+O                        3.500e+14   -0.610   5260.04
! Reac   90
C2H3+H=>C2H2+H2                          2.000e+13    0.000   2500.00
! Reac   91
C2H3+O2=>CH2O+HCO                        1.700e+29   -5.310   6500.00
! Reac   92
C2H3+O2=>C2H2+HO2                        2.120e-06    6.000   9483.99
! Reac   93
C2H3(+M)=>H+C2H2(+M)                     1.606e+10    1.028  40503.59
H2/2.0/ 
H2O/5.0/ 
CO2/3.0/ 
CO/2.0/ 
     LOW  / 1.164e+39   -6.821  44491.63 / 
     TROE/   1.0  0.0  675.0  1e+15  /
! Reac   94
C2H4+O=>CH3+HCO                          1.020e+07    1.880    179.02
! Reac   95
H+C2H4(+M)<=>C2H5(+M)                    1.081e+12    0.450   1821.94
     LOW  / 1.112e+34   -5.000   4447.90 / 
     TROE/   1.0  0.0  95.0  200.0  /
! Reac   96
C2H4+OH=>C2H3+H2O                        2.050e+13    0.000   5950.05
! Reac   97
C2H3+H2O=>C2H4+OH                        6.033e+15   -0.830  21760.04
! Reac   98
C2H4+H=>C2H3+H2                          8.420e-03    4.620   2582.93
! Reac   99
C2H3+H2=>C2H4+H                          5.723e-01    3.790   3233.03
! Reac  100
C2H4+CH3O2=>C2H3+CH3O2H                  2.230e+12    0.000  17190.01
! Reac  101
C2H4+CH3=>C2H3+CH4                       6.620e+00    3.700   9500.00
! Reac  102
C2H3+CH4=>C2H4+CH3                       1.440e+00    4.020   5472.04
! Reac  103
C2H4+O=>CH2CHO+H                         3.390e+06    1.880    179.02
! Reac  104
C2H4(+M)=>C2H2+H2(+M)                    1.800e+13    0.000  76000.00
     LOW  / 1.500e+15    0.000  55440.01 / 
     TROE/   1.0  1.0  10000000.0  10000000.0  /
! Reac  105
CH3+C2H5=>CH4+C2H4                       1.950e+13   -0.500      0.00
! Reac  106
C2H5+O2=>C2H4+HO2                        1.220e+30   -5.760  10099.90
! Reac  107
C2H4+HO2=>C2H5+O2                        1.259e+30   -5.630  22299.95
! Reac  108
C2H5+HO2=>C2H6+O2                        2.679e+08    0.890  -1922.08
! Reac  109
H+C2H5=>C2H6                             5.831e+11    0.599  -2913.00
! Reac  110
C2H6+H=>C2H5+H2                          5.540e+02    3.500   5167.07
! Reac  111
C2H5+H2=>C2H6+H                          1.355e-01    4.060   8857.07
! Reac  112
C2H6+OH=>C2H5+H2O                        5.800e+07    1.730   1159.89
! Reac  113
CH2GSG+C2H6=>CH3+C2H5                    1.200e+14    0.000      0.00
! Reac  114
C2H6+O=>C2H5+OH                          1.300e+07    2.130   5190.01
! Reac  115
C2H6+CH3=>C2H5+CH4                       1.510e-07    6.000   6047.08
! Reac  116
HCCO+O=>H+2CO                            8.000e+13    0.000      0.00
! Reac  117
HCCO+O2=>CO2+HCO                         2.400e+11    0.000   -853.97
! Reac  118
HCCO+OH=>2HCO                            1.000e+13    0.000      0.00
! Reac  119
HCCO+H=>CH2GSG+CO                        1.100e+14    0.000      0.00
! Reac  120
CH2GSG+CO=>HCCO+H                        2.046e+12    0.890  27830.07
! Reac  121
CH2CHO+O2=>CH2O+CO+OH                    2.000e+13    0.000   4200.05
! Reac  122
C3H5XA+CH2O=>C3H6+HCO                    6.300e+08    1.900  18190.01
! Reac  123
C3H6+HCO=>C3H5XA+CH2O                    1.097e+08    1.890  15840.11
! Reac  124
C3H5XA+HO2=>C3H5O+OH                     7.000e+12    0.000  -1000.00
! Reac  125
C3H5XA+CH3O2=>C3H5O+CH3O                 7.000e+12    0.000  -1000.00
! Reac  126
C3H5XA+HO2=>C3H6+O2                      3.332e+10    0.340   -555.93
! Reac  127
C3H5XA+O2=>CH2CHO+CH2O                   7.140e+15   -1.210  21049.95
! Reac  128
C3H5XA+O2=>C2H2+CH2O+OH                  9.720e+29   -5.710  21450.05
! Reac  129
C3H5XA+H=>C3H6                           4.887e+56  -12.250  28080.07
! Reac  130
C3H5XA=>C2H2+CH3                         2.397e+48   -9.900  82080.07
! Reac  131
C3H6=>C2H3+CH3                           2.730e+62  -13.280 123200.05
! Reac  132
C2H3+CH3=>C3H6                           4.712e+59  -13.190  29539.91
! Reac  133
C3H6+O=>C2H5+HCO                         1.580e+07    1.760  -1216.06
! Reac  134
C3H6+H=>C2H4+CH3                         4.830e+33   -5.810  18500.00
! Reac  135
C2H4+CH3=>C3H6+H                         2.313e+33   -5.900  31619.98
! Reac  136
C3H6+H=>C3H5XA+H2                        1.730e+05    2.500   2492.11
! Reac  137
C3H5XA+H2=>C3H6+H                        7.933e+04    2.510  19520.08
! Reac  138
C3H6+OH=>C3H5XA+H2O                      3.120e+06    2.000   -298.04
! Reac  139
C3H6+O=>C3H5XA+OH                        5.240e+11    0.700   5884.08
! Reac  140
C3H6+CH3=>C3H5XA+CH4                     2.210e+00    3.500   5674.95
! Reac  141
IXC3H7+O2=>C3H6+HO2                      4.500e+11    0.000   5020.08
! Reac  142
IXC3H7=>H+C3H6                           8.569e+18   -1.570  40340.11
! Reac  143
H+C3H6=>IXC3H7                           1.300e+13    0.000   1559.99
! Reac  144
NXC3H7=>CH3+C2H4                         2.284e+14   -0.550  28400.10
! Reac  145
CH3+C2H4=>NXC3H7                         4.100e+11    0.000   7204.11
! Reac  146
NXC3H7+HO2=>C3H8+O2                      2.080e+12    0.000      0.00
! Reac  147
NXC3H7+O2=>C3H6+HO2                      3.000e+11    0.000   3000.00
! Reac  148
NXC3H7=>H+C3H6                           2.667e+15   -0.640  36820.03
! Reac  149
H+C3H6=>NXC3H7                           1.000e+13    0.000   2500.00
! Reac  150
C3H8+OH=>NXC3H7+H2O                      1.054e+10    0.970   1586.04
! Reac  151
C3H8+HO2=>NXC3H7+H2O2                    1.680e+13    0.000  20429.97
! Reac  152
H+C3H8<=>H2+NXC3H7                       3.972e+06    2.750   6756.69
! Reac  153
C3H8+OH=>IXC3H7+H2O                      4.670e+07    1.610    -34.89
! Reac  154
CH3+C3H8=>CH4+IXC3H7                     3.980e+11    0.000   9500.00
! Reac  155
CH3+C3H8=>CH4+NXC3H7                     1.290e+12    0.000  11599.90
! Reac  156
C3H8+O=>IXC3H7+OH                        2.810e+13    0.000   5200.05
! Reac  157
C3H8+HO2=>IXC3H7+H2O2                    5.600e+12    0.000  17700.05
! Reac  158
C3H8+O=>NXC3H7+OH                        1.130e+14    0.000   7849.90
! Reac  159
C3H8+O2=>IXC3H7+HO2                      4.000e+13    0.000  47500.00
! Reac  160
IXC3H7+HO2=>C3H8+O2                      2.080e+12    0.000      0.00
! Reac  161
H+C3H8=>H2+IXC3H7                        1.300e+06    2.400   4471.08
! Reac  162
H2+IXC3H7=>H+C3H8                        4.709e+05    2.150  12179.97
! Reac  163
C3H5O=>C2H3+CH2O                         2.028e+12    0.090  23559.99
! Reac  164
IXC3H7O2=>IXC3H7+O2                      2.803e+17   -0.620  36039.91
! Reac  165
IXC3H7+O2=>IXC3H7O2                      7.540e+12    0.000      0.00
! Reac  166
NXC3H7O2=>NXC3H7+O2                      3.364e+19   -1.320  35760.04
! Reac  167
NXC3H7+O2=>NXC3H7O2                      4.520e+12    0.000      0.00
END
