THERMO
   300.000  1000.000  5000.000
N2                121286N   2               G  0300.00   5000.00  1000.00      1
 0.02926640E+02 0.01487977E-01-0.05684761E-05 0.01009704E-08-0.06753351E-13    2
-0.09227977E+04 0.05980528E+02 0.03298677E+02 0.01408240E-01-0.03963222E-04    3
 0.05641515E-07-0.02444855E-10-0.01020900E+05 0.03950372E+02                   4
O                 120186O   1               G  0300.00   5000.00  1000.00      1
 0.02542060E+02-0.02755062E-03-0.03102803E-07 0.04551067E-10-0.04368052E-14    2
 0.02923080E+06 0.04920308E+02 0.02946429E+02-0.01638166E-01 0.02421032E-04    3
-0.01602843E-07 0.03890696E-11 0.02914764E+06 0.02963995E+02                   4
H          8/12/99 THERMH   1O   0    0    0G   300.000  5000.000 1000.000    01
 2.50104422E+00 0.00000000E+00 0.00000000E+00 0.00000000E+00 0.00000000E+00    2
 2.54747466E+04-4.65341317E-01 2.50104422E+00 0.00000000E+00 0.00000000E+00    3
 0.00000000E+00 0.00000000E+00 2.54747466E+04-4.65341317E-01                   4
OH         8/12/99 THERMH   1O   1    0    0G   300.000  5000.000 1357.000    01
 2.62599754E+00 1.31992406E-03-3.59724670E-07 4.25630800E-11-1.82048016E-15    2
 4.12085374E+03 7.10667307E+00 3.43586219E+00 2.02235804E-04-1.13546412E-07    3
 2.42445149E-10-7.43651031E-14 3.74321252E+03 2.45014127E+00                   4
H2                121286H   2               G  0300.00   5000.00  1000.00      1
 0.02991423E+02 0.07000644E-02-0.05633829E-06-0.09231578E-10 0.01582752E-13    2
-0.08350340E+04-0.01355110E+02 0.03298124E+02 0.08249442E-02-0.08143015E-05    3
-0.09475434E-09 0.04134872E-11-0.01012521E+05-0.03294094E+02                   4
O2                121386O   2               G  0300.00   5000.00  1000.00      1
 0.03697578E+02 0.06135197E-02-0.01258842E-05 0.01775281E-09-0.01136435E-13    2
-0.01233930E+05 0.03189166E+02 0.03212936E+02 0.01127486E-01-0.05756150E-05    3
 0.01313877E-07-0.08768554E-11-0.01005249E+05 0.06034738E+02                   4
H2O                20387H   2O   1          G  0300.00   5000.00  1000.00      1
 0.02672146E+02 0.03056293E-01-0.08730260E-05 0.01200996E-08-0.06391618E-13    2
-0.02989921E+06 0.06862817E+02 0.03386842E+02 0.03474982E-01-0.06354696E-04    3
 0.06968581E-07-0.02506588E-10-0.03020811E+06 0.02590233E+02                   4
H2O2              120186H   2O   2          G  0300.00   5000.00  1000.00      1
 0.04573167E+02 0.04336136E-01-0.01474689E-04 0.02348904E-08-0.01431654E-12    2
-0.01800696E+06 0.05011370E+01 0.03388754E+02 0.06569226E-01-0.01485013E-05    3
-0.04625806E-07 0.02471515E-10-0.01766315E+06 0.06785363E+02                   4
HO2        8/12/99 THERMH   1O   2    0    0G   300.000  5000.000 1390.000    01
 4.10547423E+00 2.38452835E-03-8.06347989E-07 1.24191723E-10-7.16400108E-15    2
 3.98127689E+02 3.12515836E+00 3.18310656E+00 3.66767950E-03-9.32385122E-07    3
-3.25852919E-10 1.51139912E-13 8.09181013E+02 8.39371099E+00                   4
CH2GSG             31287C   1H   2          G  0300.00   4000.00  1000.00      1
 0.03552889E+02 0.02066788E-01-0.01914116E-05-0.01104673E-08 0.02021350E-12    2
 0.04984975E+06 0.01686570E+02 0.03971265E+02-0.01699089E-02 0.01025369E-04    3
 0.02492551E-07-0.01981266E-10 0.04989368E+06 0.05753207E+00                   4
CH2O              121286C   1H   2O   1     G  0300.00   5000.00  1000.00      1
 0.02995606E+02 0.06681321E-01-0.02628955E-04 0.04737153E-08-0.03212517E-12    2
-0.01532037E+06 0.06912572E+02 0.01652731E+02 0.01263144E+00-0.01888168E-03    3
 0.02050031E-06-0.08413237E-10-0.01486540E+06 0.01378482E+03                   4
CH3               121286C   1H   3          G  0300.00   5000.00  1000.00      1
 0.02844052E+02 0.06137974E-01-0.02230345E-04 0.03785161E-08-0.02452159E-12    2
 0.01643781E+06 0.05452697E+02 0.02430443E+02 0.01112410E+00-0.01680220E-03    3
 0.01621829E-06-0.05864953E-10 0.01642378E+06 0.06789794E+02                   4
CO                121286C   1O   1          G  0300.00   5000.00  1000.00      1
 0.03025078E+02 0.01442689E-01-0.05630828E-05 0.01018581E-08-0.06910952E-13    2
-0.01426835E+06 0.06108218E+02 0.03262452E+02 0.01511941E-01-0.03881755E-04    3
 0.05581944E-07-0.02474951E-10-0.01431054E+06 0.04848897E+02                   4
CH3O              121686C   1H   3O   1     G  0300.00   3000.00  1000.00      1
 0.03770800E+02 0.07871497E-01-0.02656384E-04 0.03944431E-08-0.02112616E-12    2
 0.01278325E+04 0.02929575E+02 0.02106204E+02 0.07216595E-01 0.05338472E-04    3
-0.07377636E-07 0.02075611E-10 0.09786011E+04 0.01315218E+03                   4
C2H5               12387C   2H   5          G  0300.00   5000.00  1000.00      1
 0.07190480E+02 0.06484077E-01-0.06428065E-05-0.02347879E-08 0.03880877E-12    2
 0.01067455E+06-0.01478089E+03 0.02690702E+02 0.08719133E-01 0.04419839E-04    3
 0.09338703E-08-0.03927773E-10 0.01287040E+06 0.01213820E+03                   4
CH4               121286C   1H   4          G  0300.00   5000.00  1000.00      1
 0.01683479E+02 0.01023724E+00-0.03875129E-04 0.06785585E-08-0.04503423E-12    2
-0.01008079E+06 0.09623395E+02 0.07787415E+01 0.01747668E+00-0.02783409E-03    3
 0.03049708E-06-0.01223931E-09-0.09825229E+05 0.01372219E+03                   4
C2H4              121286C   2H   4          G  0300.00   5000.00  1000.00      1
 0.03528419E+02 0.01148518E+00-0.04418385E-04 0.07844601E-08-0.05266848E-12    2
 0.04428289E+05 0.02230389E+02-0.08614880E+01 0.02796163E+00-0.03388677E-03    3
 0.02785152E-06-0.09737879E-10 0.05573046E+05 0.02421149E+03                   4
C2H6       1/14/95 THERMC   2H   6    0    0G   300.000  5000.000 1384.000    11
 6.10683385E+00 1.29236361E-02-4.42527196E-06 6.87391726E-10-3.98901732E-14    2
-1.37500014E+04-1.30081250E+01-2.52854344E-02 2.40764754E-02-1.11893472E-05    3
 2.08340901E-09-5.29868616E-14-1.12345534E+04 2.11648750E+01                   4
CO2               121286C   1O   2          G  0300.00   5000.00  1000.00      1
 0.04453623E+02 0.03140169E-01-0.01278411E-04 0.02393997E-08-0.01669033E-12    2
-0.04896696E+06-0.09553959E+01 0.02275725E+02 0.09922072E-01-0.01040911E-03    3
 0.06866687E-07-0.02117280E-10-0.04837314E+06 0.01018849E+03                   4
HCO               121286H   1C   1O   1     G  0300.00   5000.00  1000.00      1
 0.03557271E+02 0.03345573E-01-0.01335006E-04 0.02470573E-08-0.01713851E-12    2
 0.03916324E+05 0.05552299E+02 0.02898330E+02 0.06199147E-01-0.09623084E-04    3
 0.01089825E-06-0.04574885E-10 0.04159922E+05 0.08983614E+02                   4
CH3O2      7/13/98 THERMC   1H   3O   2    0G   300.000  5000.000 1385.000    11
 5.95787891E+00 7.90728626E-03-2.68246234E-06 4.13891337E-10-2.39007330E-14    2
-1.53574838E+03-4.71963886E+00 4.26146906E+00 1.00873599E-02-3.21506184E-06    3
 2.09409267E-10 4.18339103E-14-6.84394259E+02 5.16330320E+00                   4
CH3O2H     7/13/98 THERMC   1H   4O   2    0G   300.000  5000.000 1390.000    21
 8.43117091E+00 8.06817909E-03-2.77094921E-06 4.31332243E-10-2.50692146E-14    2
-1.96678771E+04-1.91170629E+01 3.23442817E+00 1.90129767E-02-1.13386287E-05    3
 3.40306653E-09-4.11830222E-13-1.77197926E+04 9.25623949E+00                   4
C2H2              121386C   2H   2          G  0300.00   5000.00  1000.00      1
 0.04436770E+02 0.05376039E-01-0.01912817E-04 0.03286379E-08-0.02156710E-12    2
 0.02566766E+06-0.02800338E+02 0.02013562E+02 0.01519045E+00-0.01616319E-03    3
 0.09078992E-07-0.01912746E-10 0.02612444E+06 0.08805378E+02                   4
HCCO               32387H   1C   2O   1     G  0300.00   4000.00  1000.00      1
 0.06758073E+02 0.02000400E-01-0.02027607E-05-0.01041132E-08 0.01965165E-12    2
 0.01901513E+06-0.09071262E+02 0.05047965E+02 0.04453478E-01 0.02268283E-05    3
-0.01482095E-07 0.02250742E-11 0.01965892E+06 0.04818439E+01                   4
C2H3               12787C   2H   3          G  0300.00   5000.00  1000.00      1
 0.05933468E+02 0.04017746E-01-0.03966740E-05-0.01441267E-08 0.02378644E-12    2
 0.03185435E+06-0.08530313E+02 0.02459276E+02 0.07371476E-01 0.02109873E-04    3
-0.01321642E-07-0.01184784E-10 0.03335225E+06 0.01155620E+03                   4
CH2CHO            110393O   1H   3C   2     G  0300.00   5000.00  1000.00      1
 0.05975670E+02 0.08130591E-01-0.02743624E-04 0.04070304E-08-0.02176017E-12    2
 0.04903218E+04-0.05045251E+02 0.03409062E+02 0.01073857E+00 0.01891492E-04    3
-0.07158583E-07 0.02867385E-10 0.01521477E+05 0.09558290E+02                   4
C3H5XA     5/27/97 THERMC   3H   5    0    0G   300.000  5000.000 1397.000    01
 8.45883958E+00 1.12695483E-02-3.83792864E-06 5.94059119E-10-3.43918030E-14    2
 1.63576092E+04-2.25809450E+01-5.29131958E-01 3.34559100E-02-2.53401027E-05    3
 1.02865754E-08-1.73258340E-12 1.93834226E+04 2.53067131E+01                   4
C3H6       5/27/97 THERMC   3H   6    0    0G   300.000  5000.000 1388.000    11
 8.01595958E+00 1.37023634E-02-4.66249733E-06 7.21254402E-10-4.17370126E-14    2
-1.87821271E+03-2.00160668E+01 3.94615444E-01 2.89107662E-02-1.54886808E-05    3
 3.88814209E-09-3.37890352E-13 1.06688164E+03 2.19003736E+01                   4
C3H5O      7/20/95 THERMC   3H   5O   1    0G   300.000  5000.000 1380.000    11
 1.02551752E+01 1.14983720E-02-3.84645659E-06 5.88910346E-10-3.38557923E-14    2
 6.26560810E+03-2.77655042E+01 1.19822582E+00 3.05579837E-02-1.80630276E-05    3
 4.86150033E-09-4.19854562E-13 9.58217784E+03 2.15566221E+01                   4
IXC3H7            120186C   3H   7          G  0300.00   5000.00  1000.00      1
 0.08063369E+02 0.01574488E+00-0.05182392E-04 0.07477245E-08-0.03854422E-12    2
 0.05313871E+05-0.02192647E+03 0.01713300E+02 0.02542616E+00 0.01580808E-04    3
-0.01821286E-06 0.08827710E-10 0.07535809E+05 0.01297901E+03                   4
NXC3H7            120186C   3H   7          G  0300.00   5000.00  1000.00      1
 0.07978291E+02 0.01576113E+00-0.05173243E-04 0.07443892E-08-0.03824978E-12    2
 0.07579402E+05-0.01935611E+03 0.01922537E+02 0.02478927E+00 0.01810249E-04    3
-0.01783266E-06 0.08582996E-10 0.09713281E+05 0.01399271E+03                   4
C3H8              120186C   3H   8          G  0300.00   5000.00  1000.00      1
 0.07525217E+02 0.01889034E+00-0.06283924E-04 0.09179373E-08-0.04812410E-12    2
-0.01646455E+06-0.01784390E+03 0.08969208E+01 0.02668986E+00 0.05431425E-04    3
-0.02126001E-06 0.09243330E-10-0.01395492E+06 0.01935533E+03                   4
IXC3H7O2   7/19/ 0 THERMC   3H   7O   2    0G   300.000  5000.000 1388.000    31
 1.32493493E+01 1.64082190E-02-5.67432062E-06 8.87336340E-10-5.17361535E-14    2
-1.44109855E+04-4.29066213E+01 1.49941639E+00 4.43081205E-02-3.22414456E-05    3
 1.29687136E-08-2.23370569E-12-1.02587980E+04 2.02336490E+01                   4
NXC3H7O2   7/19/ 0 THERMC   3H   7O   2    0G   300.000  5000.000 1384.000    31
 1.26327059E+01 1.69910726E-02-5.88866873E-06 9.22195396E-10-5.38230675E-14    2
-1.19194652E+04-3.85349297E+01 2.10731492E+00 3.96164986E-02-2.49491599E-05    3
 8.59450300E-09-1.31240330E-12-7.93745567E+03 1.89082748E+01                   4
END
