! benzene-air mechanism used by Teodorczyk et al (see JES for paper)  
! will probably work for smaller HC molecules too - test first.
ELEMENTS
  H   O   C  N
END
SPECIES
 H2  O2  H  O  OH  HO2  H2O  H2O2  HCO
 CO  CO2  CH  CH2  CH3  CH4  CH2O  CH3O
 C2H2  C2H3  C2H  C2H4  C2H2O  C2HO
 C3H2  C3H3  C3H4
 C4H2  C4H3  C4H4  C4H5
 C5H5  C5H6  C5H5O  C5H4OH
 C6H5  C6H6  C6H5O  C6H5OH  C12H10 N2 N NO
END
THERMO
C2H2O                   C   2H   2O   1    0G   200.000  6000.000              1
 0.57577901E+01 0.63496507E-02-0.22584407E-05 0.36208462E-09-0.21569030E-13    2
-0.79786113E+04-0.61064037E+01 0.21401165E+01 0.18088368E-01-0.17324216E-04    3
 0.92767477E-08-0.19915011E-11-0.70430509E+04 0.12198699E+02-0.57366700E+04    4
C2HO                    C   2H   1O   1    0G   200.000  6000.000              1
 0.58469006E+01 0.36405960E-02-0.12959007E-05 0.20796919E-09-0.12400022E-13    2
 0.19248496E+05-0.52916533E+01 0.23350118E+01 0.17010083E-01-0.22018867E-04    3
 0.15406447E-07-0.43455097E-11 0.20050299E+05 0.11976729E+02 0.21336387E+05    4
C3H3 PROPARGYL RADL 8/89C   3H   3    0    0G   200.000  6000.000              1
 0.66416953E+01 0.80859651E-02-0.28479238E-05 0.45353447E-09-0.26888535E-13    2
 0.38979395E+05-0.10400071E+02 0.18283782E+01 0.23784171E-01-0.21923663E-04    3
 0.10007755E-07-0.13902579E-11 0.40186308E+05 0.13844912E+02 0.41613998E+05    4
C4H3              L 9/89C   4H   3    0    0G   298.150  6000.000              1
 0.84762079E+01 0.88782327E-02-0.30328412E-05 0.47358302E-09-0.27716627E-13    2
 0.54756540E+05-0.17170551E+02 0.24173247E+01 0.24104782E-01-0.12813470E-04    3
-0.28606237E-08 0.39194527E-11 0.56506476E+05 0.14471107E+02 0.58181574E+05    4
C4H4              L 9/89C   4H   4    0    0G   200.000  6000.000              1
 0.82948104E+01 0.11994381E-01-0.42624075E-05 0.68306978E-09-0.40680631E-13    2
 0.33550866E+05-0.18426826E+02 0.14049083E+01 0.29531073E-01-0.15596302E-04    3
-0.32142002E-08 0.45436937E-11 0.35507830E+05 0.17450183E+02 0.37097268E+05    4
C12H10                  C 12.H 10.   0.   0.G   300.000  5000.000              1
 0.24289017E+02 0.34006648E-01-0.11722408E-04 0.17729298E-08-0.96812532E-13    2
 0.10287000E+05-0.10802374E+03-0.40739527E+01 0.86973310E-01-0.42353613E-05    3
-0.64564460E-07 0.34150169E-10 0.19405965E+05 0.44741348E+02 0.21905340E+05    4
C4H5                    C   4H   5    0    0G   300.000  3000.                 1
  0.7255918E+01  0.1714131E-01 -0.7435045E-05  0.1641052E-08 -0.1536078E-12    2
  0.3822741E+05 -0.1242283E+02 -0.2032928E+01  0.5363053E-01 -0.6338269E-04    3
  0.4064144E-07 -0.1039802E-10  0.4021965E+05  0.3278783E+02  0.4150575E+05    4
C5H5                    C   5H   5    0    0G   298.150  5000.000              1
 0.14889675E+02 0.82161004E-02-0.15178062E-05 0.16268184E-09-0.88052708E-14    2
 0.42719249E+05-0.53382883E+02-0.26085299E+01 0.65236909E-01-0.82191379E-04    3
 0.60364270E-07-0.19071607E-10 0.47360405E+05 0.35504920E+02 0.48866379E+05    4
C5H5O                   C   5H   5O   1    0G   200.000  6000.000              1
 0.12606535E+02 0.16747067E-01-0.61097587E-05 0.99674576E-09-0.60111834E-13    2
 0.14114657E+04-0.42604911E+02 0.23043601E+00 0.32322572E-01 0.28900908E-04    3
-0.70680613E-07 0.33407174E-10 0.55554724E+04 0.25330946E+02 0.71922458E+04    4
C5H4OH                  C   5H   5O   1    0G   200.000  6000.000              1
 0.13367777E+02 0.15205911E-01-0.54592662E-05 0.88135325E-09-0.52774563E-13    2
 0.47218184E+04-0.45920099E+02-0.12820812E+01 0.49040075E-01-0.13687402E-04    3
-0.29134476E-07 0.19006885E-10 0.88893319E+04 0.30797801E+02 0.10517228E+05    4
END
REACTIONS
C6H6+O2=C6H5O+OH     4.00E13      0        34000    !
C6H6+C6H5=C12H10+H   4.00E11      0         4000    !
C6H6=C6H5+H          5.00E15      0       108000    !
C6H6+H=C6H5+H2       2.50E14      0        16000    !
C6H6+O=C6H5O+H       2.78E13      0         4910    !
C6H6+OH=C6H5+H2O     2.13E13      0         4580    !
C4H3+M=C4H2+H+M      1.00E16      0        60000    !
C6H5O=C5H5+CO        2.51E11      0        43900    !
C6H5+O2=C6H5O+O      2.10E12      0         7470    !
C6H5+HO2=C6H5O+OH    5.00E13      0         1000    !
C6H5=C4H3+C2H2       4.50E13      0        72530    !
C6H5OH=C6H5O+H       2.00E16      0        88000    !
C6H5OH+H=C6H6+OH     2.20E13      0         7910    !
C6H5OH+H=C6H5O+H2    1.15E14      0        12400    !
C6H5OH+C5H5=C6H5O+C5H6   2.67E14      0      25200    !
C5H6=C5H5+H          8.13E24     -2.981    78682    !
C5H6+O2=C5H5O+OH     1.00E13      0        20712    !
C6H5OH+OH=C6H5O+H2O  3.00E13      0            0    !
C6H5OH+HO2=C6H5O+H2O2    3.00E13      0      15000    !
C5H5O=C4H5+CO        3.00E16      0        15000    !
C5H5+O=C5H5O         1.00E13      0            0    !
C5H5+OH=C5H4OH+H     1.00E13      0            0    !
C5H4OH=C4H4+HCO      1.00E15      0            0    !
C5H5+HO2=C5H5O+OH    2.00E13      0            0    !
2C6H5=C12H10         3.10E12      0            0    !
C4H5=C2H3+C2H2       1.40E13      0        32900    !
C4H2+O=C2HO+C2H      1.00E13      0            0    !
C4H2+O=CO+C3H2       1.20E12      0            0    !
C4H2+OH=HCO+C3H2     3.00E13      0            0    !
C2H4+M=C2H2+H2       9.33E16      0        77200    !
C2H4+OH=C2H3+H2O     4.79E12      0         1230    !
C2H4+O=CH3+HCO       3.31E12      0         1130    !
C2H4+O=CH2O+CH2      2.51E13      0         5000    !
C2H4+OH=CH3+CH2O     2.00E12      0          960    !
C2H3+M=C2H2+H+M      3.00E15      0        32000    !
C2H3+O2=CH2O+HCO      3.98E12      0         -250    !
C2H3+H=C2H2+H2       6.00E12      0            0    !
C2H3+OH=C2H2+H2O     5.00E12      0            0    !
C2H3+CH2=C2H2+CH3    3.00E13      0            0    !
C2H3+C2H=2C2H2       3.00E13      0            0    !
C2H3+O=C2H2O+H       3.30E13      0            0    !
CH2+CH2=C2H2+H2      4.00E13      0            0    !
CH2+CH2=C2H3+H       5.00E12      0            0    !
CH2+OH=CH+H2O        2.51E11      0.67     25700    !
CH2+O=CH+OH          2.00E11      0.68     25000    !
CH2+O2=CO2+2H        1.59E12      0         1000    !
C2H2+M=C2H+H         4.17E16      0       107000    !
C2H2+C2H2=C4H3+H     2.00E12      0        45900    !
C2H2+O=CH2+CO        1.60E14      0         9890    !
C2H2+O=C2HO+H        4.00E14      0        10660    !
C2H2+OH=C2H+H2O      6.31E12      0         7000    !
C2H2+OH=C2H2O+H      3.20E11      0          200    !
C2H2+C2H=C4H2+H      3.00E13      0            0    !
C2H2+CH2=C3H3+H      1.20E13      0         6600    !
C3H4+M=C3H3+H+M      2.00E17      0        65000    !
C2H2O+OH=CH2O+HCO    2.80E13      0            0    !
C2H2O+OH=C2HO+H2O    7.50E12      0         3000    !
C2H2O+H=CH3+CO       1.13E13      0         3428    !
C2H2O+H=C2HO+H2      7.50E13      0         8000    !
C2H2O+O=C2HO+OH      5.00E13      0         8000    !
C2H2O+O=CH2O+CO      2.00E13      0            0    !
C2H2O+M=CH2+CO+M     2.00E16      0        60000    !
C2HO+O2=2CO+OH       1.46E12      0         2500    !
C2HO+O=2CO+H         1.20E12      0            0    !
C2HO+OH=2HCO         1.00E13      0            0    !
C2HO+H=CH2+CO        5.00E13      0            0    !
C2HO+CH2=C2H3+CO     3.00E13      0            0    !
C2HO+CH2=CH2O+C2H    1.00E13      0         2000    !
C2HO+C2HO=C2H2+2CO   1.00E13      0            0    !
C2H+OH=C2HO+H        2.00E13      0            0    !
C2H+O2=C2HO+O        5.00E13      0         1500    !
C2H+O=CO+CH          5.00E13      0            0    !
CH4+M=CH3+H+M        2.00E17      0        88000    !
CH4+O2=CH3+HO2       7.94E13      0        56000    !
CH4+H=CH3+H2         1.26E14      0        11900    !
CH4+OH=CH3+H2O       2.50E13      0         5010    !
CH4+O=CH3+OH         1.90E14      0        11720    !
CH3+O2=CH3O+O        4.79E13      0        29000    !
CH3+OH=CH3O+H        6.30E12      0            0    !
CH3O+M=CH2O+H+M      5.00E13      0        21000    !
CH3O+O2=CH2O+HO2     1.00E12      0         6000    !
CH3O+H=CH2O+H2       2.00E13      0            0    !
CH3+CH3=C2H4+H2      1.00E16      0        32000    !
CH3+O=CH2O+H         1.29E14      0         2000    !
CH3+CH2O=CH4+HCO     1.00E10      0.5       6000    !
CH3+HCO=CH4+CO       3.00E11      0.5          0    !
CH3+HO2=CH3O+OH      2.00E13      0            0    !
CH2O+M=HCO+H+M       5.00E16      0        76500    !
CH2O+OH=HCO+H2O      3.00E13      0         1200    !
CH2O+H=HCO+H2        2.50E13      0         3990    !
CH2O+O=HCO+OH        3.50E13      0         3510    !
HCO+HO2=CH2O+O2      1.00E14      0         3000    !
HCO+M=H+CO+M         2.94E14      0        15570    !
HCO+O2=CO+HO2        3.31E12      0         7000    !
HCO+OH=CO+H2O        1.00E14      0            0    !
HCO+H=CO+H2          2.00E14      0            0    !
HCO+O=CO+OH          1.00E14      0            0    !
CH+O2=HCO+O          1.00E13      0            0    !
CO+O+M=CO2+M         5.90E15      0         4100    !
CO+O2=CO2+O          2.50E12      0        47690    !
CO+OH=CO2+H          4.17E11      0         1000    !
CO+HO2=CO2+OH        5.75E13      0        22930    !
O+H2O=OH+OH          6.80E13      0        18365    !
H+O2=OH+O            1.89E14      0        16400    !
O+H2=OH+H            4.20E14      0        13750    !
H+HO2=H2+O2          7.28E13      0         2126    !
O+HO2=OH+O2          5.00E13      0         1000    !
HO2+OH=H2O+O2        8.00E12      0            0    !
H+HO2=OH+OH          1.34E14      0         1070    !
H2+HO2=H2O2+H        7.91E13      0        25000    !
OH+H2O2=H2O+HO2      6.10E12      0         1430    !
HO2+HO2=H2O2+O2      1.80E12      0            0    !
H+H2O2=OH+H2O        7.80E11      0            0    !
H2O2+M=OH+OH+M       1.44E17      0        45510    !
   H2/2.3/   O2/0.78/   H2O/6.0/   H2O2/6.6/
H2+OH=H2O+H          4.74E13      0         6098    !
H+O2+M=HO2+M         1.46E15      0        -1000    !
   H2/3.0/   O2/1.3/   H2O/21.3/   CO2/7.0/   C6H6/20.0/   CH4/5.0/
H2O+M=H+OH+M         1.30E15      0       105140    !
   H2/4.0/   O2/1.5/   H2O/20.0/   CO2/4.0/   C6H6/20.0/
H+O+M=OH+M           7.10E18     -1.0          0    !
H2+M=H+H+M           2.20E14      0        96000    !
     H2/4.1/    O2/2.0/    H2O/15.0/
O2+M=O+O+M           1.80E18     -1.0     118000    !
O+N2=NO+N         1.84E14     0.000    76250.   !
N+O2=NO+O          6.4E09     1.000     6280.   !
H+NO=N+OH         2.22E14       0       50500   !
N2+M=N+N+M        3.71E21     -1.6      224928.   ! From Hanson and Saliman 1984
N2/1.0/
END
