! HMX/RDX Reaction Mechanism
! Debashis Chakravorty, Siddharth Dasgupta, Rick Muller, Joe Shepherd
! Caltech, Pasadena, CA
! sdg@wag.caltech.edu, rpm@wag.caltech.edu,  jeshep@galcit.caltech.edu
! Version of March 23, 2001 Duplicate reactions removed.
! Thermochemistry for RDX, RDXR, RDXRO, HMX, HMXR, and HMXRO from
! B3LYP/6-31G* computation
! Contains portions of
! GRI-Mech Version 2.11 11/3/95  1st release 9/6/95  CHEMKIN-II format
! R. Yetter's RDX decomposition mechanism
! 3/14/99 Added Melius' NM decomposition steps
!
ELEMENTS
O  H  C  N AR
END

SPECIES
H2      H       O       O2      OH      H2O     HO2     H2O2
C       CH      CH2     CH2(S)  CH3     CH4     CO      CO2
HCO     CH2O    CH2OH   CH3O    CH3OH   C2H     C2H2    C2H3
C2H4    C2H5    C2H6    HCCO    CH2CO   HCCOH   N       NH
NH2     NH3     NNH     NO      NO2     N2O     HNO     CN
HCN     H2CN    HCNN    HCNO    HOCN    HNCO    NCO     N2     
HONO	NO3	HNO3	HNC	C2N2	NCN	CNO	H2CNH	
H2CNO	H2CNNO2	H2CNNO	AR	RDX	RDXR	RDXRO	HMX
HMXR	HMXRO   CH3NO2  CH3ONO  H2CNOH  HNNO2   N3      CH2N2
INT176  INT149  MNH     INT102  INT130  C2N2H4  INT175  INT128
C3N3H3  INT249  INT202  INT155  INT108  INT204  INT158  INT157
INT112
END

THERMO
HCNN              SRI/94C   1N   2H   1O   0G   300.000  5000.000  1000.000    1
 0.58946362E+01 0.39895959E-02-0.15982380E-05 0.29249395E-09-0.20094686E-13    2
 0.53452941E+05-0.51030502E+01 0.25243194E+01 0.15960619E-01-0.18816354E-04    3
 0.12125540E-07-0.32357378E-11 0.54261984E+05 0.11675870E+02                   4
H2CNOH                 0C   1H   3N   1O   1G   398.150  3998.150 1000.00    0 1
 0.74099560E+01 0.50242841E-02-0.43950382E-06-0.27173794E-09 0.48875919E-13    2
-0.15165459E+03-0.14390435E+02 0.39264379E+01 0.84159914E-02 0.24253404E-05    3
-0.22424747E-08-0.75341979E-12 0.13342050E+04 0.57062178E+01                   4
HNNO2                  0C   0H   1N   2O   2G   398.150  3998.150 1000.00    0 1
 0.86751118E+01 0.27223055E-02-0.27313047E-06-0.14795938E-09 0.27865053E-13    2
-0.53710333E+03-0.19856453E+02 0.35216362E+01 0.11101455E-01 0.58288231E-06    3
-0.63835381E-08 0.21817569E-11 0.12695757E+04 0.84753876E+01                   4
CH2N2                  0C   1H   2N   2O   0G   398.150  3998.150 1000.00    0 1
 0.61465974E+01 0.42485446E-02-0.40520882E-06-0.23398553E-09 0.43292125E-13    2
 0.45057274E+02-0.83045931E+01 0.38946996E+01 0.45112791E-02 0.30685555E-05    3
 0.10378680E-08-0.27131639E-11 0.12409940E+04 0.55165114E+01                   4
RDX                    0C   3H   6N   6O   6G   398.150  3998.150 1000.00    0 1
 0.33845612E+02 0.17326083E-01-0.17182012E-05-0.96887465E-09 0.18193773E-12    2
-0.59420942E+04-0.14966135E+03 0.11465692E+02 0.44587482E-01 0.10390068E-04    3
-0.17449944E-07-0.32674259E-12 0.29930435E+04-0.22761007E+02                   4
RDXR                   0C   3H   6N   5O   4G   398.150  3998.150 1000.00    0 1
 0.27651234E+02 0.15450031E-01-0.15144443E-05-0.86526009E-09 0.16186693E-12    2
-0.49530908E+04-0.11856160E+03 0.88580265E+01 0.37594482E-01 0.94515408E-05    3
-0.14057769E-07-0.96285241E-12 0.26356328E+04-0.11691484E+02                   4
RDXRO                  0C   3H   6N   5O   4G   398.150  3998.150 1000.00    0 1
 0.28303980E+02 0.14901853E-01-0.14518037E-05-0.82730889E-09 0.15435809E-12    2
-0.39415122E+04-0.11666122E+03 0.11125300E+02 0.35025034E-01 0.86389628E-05    3
-0.12663684E-07-0.10445349E-11 0.30108621E+04-0.18918489E+02                   4
INT176                 0C   3H   6N   5O   4G   398.150  3998.150 1000.00    0 1
 0.25601433E+02 0.16252507E-01-0.15243996E-05-0.90304469E-09 0.16648483E-12    2
-0.46482485E+04-0.10888701E+03 0.85526590E+01 0.36036637E-01 0.90522062E-05    3
-0.13213569E-07-0.83495678E-12 0.22608447E+04-0.11836821E+02                   4
INT149                 0C   2H   5N   4O   4G   398.150  3998.150 1000.00    0 1
 0.20848307E+02 0.13662275E-01-0.12844069E-05-0.75896195E-09 0.13999216E-12    2
-0.35787178E+04-0.83624870E+02 0.76856289E+01 0.27694061E-01 0.80018090E-05    3
-0.87760563E-08-0.19982377E-11 0.19045817E+04-0.81682777E+01                   4
MNH                    0C   1H   3N   2O   2G   398.150  3998.150 1000.00    0 1
 0.10528720E+02 0.70586377E-02-0.66352214E-06-0.39032699E-09 0.71952474E-13    2
-0.11611355E+04-0.29865257E+02 0.47358847E+01 0.11938971E-01 0.45550719E-05    3
-0.22971864E-08-0.23272820E-11 0.14085635E+04 0.38960276E+01                   4
INT102                 0C   2H   4N   3O   2G   398.150  3998.150 1000.00    0 1
 0.16110294E+02 0.93377130E-02-0.90360072E-06-0.51870280E-09 0.96549030E-13    2
-0.19618849E+04-0.56032608E+02 0.67508616E+01 0.18998172E-01 0.58036835E-05    3
-0.54769287E-08-0.19535356E-11 0.19811295E+04-0.22287793E+01                   4
INT130                 0C   3H   6N   4O   2G   398.150  3998.150 1000.00    0 1
 0.20565344E+02 0.14012674E-01-0.13326830E-05-0.78645690E-09 0.14572871E-12    2
-0.43352300E+04-0.85184776E+02 0.50849032E+01 0.31480521E-01 0.86718164E-05    3
-0.11277243E-07-0.13553888E-11 0.19993734E+04 0.31524224E+01                   4
C2N2H4                 0C   2H   4N   2O   0G   398.150  3998.150 1000.00    0 1
 0.96810684E+01 0.75237425E-02-0.69536787E-06-0.41654866E-09 0.76362365E-13    2
-0.98365826E+03-0.26631771E+02 0.43906517E+01 0.11249335E-01 0.48420579E-05    3
-0.15065112E-08-0.28062767E-11 0.14471715E+04 0.45028071E+01                   4
INT175                 0C   3H   5N   5O   4G   398.150  3998.150 1000.00    0 1
 0.26380867E+02 0.14400323E-01-0.14190292E-05-0.80712181E-09 0.15127125E-12    2
-0.49062021E+04-0.11260262E+03 0.82701588E+01 0.35969507E-01 0.88925563E-05    3
-0.13695021E-07-0.73089055E-12 0.23811262E+04-0.97067499E+01                   4
INT128                 0C   3H   4N   4O   2G   398.150  3998.150 1000.00    0 1
 0.19123812E+02 0.11368583E-01-0.11138915E-05-0.63937622E-09 0.11963538E-12    2
-0.37575383E+04-0.76286530E+02 0.52605124E+01 0.27275007E-01 0.73774345E-05    3
-0.98881152E-08-0.11660773E-11 0.18914347E+04 0.27300098E+01                   4
C3N3H3                 0C   3H   3N   3O   0G   398.150  3998.150 1000.00    0 1
 0.12100902E+02 0.81733055E-02-0.79192148E-06-0.46166082E-09 0.86099327E-13    2
-0.24661226E+04-0.42675327E+02 0.24089375E+01 0.18926188E-01 0.55459104E-05    3
-0.66281158E-08-0.11461945E-11 0.15248619E+04 0.12716140E+02                   4
HMX                    0C   4H   8N   8O   8G   398.150  3998.150 1000.00    0 1
 0.46561832E+02 0.22758581E-01-0.22789563E-05-0.12743273E-08 0.24009307E-12    2
-0.82976182E+04-0.21536607E+03 0.15471770E+02 0.61698541E-01 0.13486020E-04    3
-0.25263942E-07 0.61482731E-12 0.39899246E+04-0.39523132E+02                   4
HMXR                   0C   4H   8N   7O   6G   398.150  3998.150 1000.00    0 1
 0.40587879E+02 0.20719709E-01-0.20566058E-05-0.11610574E-08 0.21812226E-12    2
-0.75949609E+04-0.18663506E+03 0.12871555E+02 0.55573136E-01 0.12023012E-04    3
-0.23015280E-07 0.85563241E-12 0.33374971E+04-0.29945351E+02                   4
HMXRO                  0C   4H   8N   7O   6G   398.150  3998.150 1000.00    0 1
 0.41302479E+02 0.20238517E-01-0.20150155E-05-0.11282300E-08 0.21207649E-12    2
-0.62809463E+04-0.18305733E+03 0.15537430E+02 0.51642224E-01 0.11832964E-04    3
-0.19975129E-07-0.42766390E-12 0.40059277E+04-0.36964130E+02                   4
CH3NO2             61687C   1N   1H   3O   2G   300.000  4000.000 1000.00    0 1
 0.89472980E+01 0.60300473E-02-0.58741614E-06-0.33902350E-09 0.63481149E-13    2
-0.12243106E+05-0.18687868E+02 0.26279607E+01 0.13940306E-01 0.26007149E-05    3
-0.51687183E-08 0.11412193E-12-0.97443125E+04 0.17057480E+02                   4
CH3ONO             61687C   1O   2H   3N   1G   300.000  4000.000 1000.00    0 1
 0.96638641E+01 0.56134374E-02-0.53086558E-06-0.30986858E-09 0.56929538E-13    2
-0.11771269E+05-0.23393900E+02 0.37120926E+01 0.13858826E-01 0.17767574E-05    3
-0.58541936E-08 0.10000156E-11-0.95139346E+04 0.99326286E+01                   4
INT249                 0C   4H   7N   7O   6G   398.150  3998.150 1000.00    0 1
 0.38402985E+02 0.20120000E-01-0.19876306E-05-0.11254805E-08 0.21108355E-12    2
-0.68986348E+04-0.17296358E+03 0.12787807E+02 0.51165406E-01 0.12067288E-04    3
-0.19910845E-07-0.48870310E-12 0.33451660E+04-0.27656338E+02                   4
INT202                 0C   4H   6N   6O   4G   398.150  3998.150 1000.00    0 1
 0.32882660E+02 0.15967445E-01-0.15730047E-05-0.89434776E-09 0.16764381E-12    2
-0.61437354E+04-0.14556163E+03 0.88715372E+01 0.49069505E-01 0.81058215E-05    3
-0.23513714E-07 0.40172488E-11 0.29750020E+04-0.11062732E+02                   4
INT155                 0C   4H   5N   5O   2G   398.150  3998.150 1000.00    0 1
 0.25443319E+02 0.13039203E-01-0.12771998E-05-0.73145473E-09 0.13686341E-12    2
-0.48877759E+04-0.10840988E+03 0.64350915E+01 0.38808446E-01 0.68341396E-05    3
-0.18228983E-07 0.27620350E-11 0.23813989E+04-0.17543986E+01                   4
INT108                 0C   4H   4N   4O   0G   398.150  3998.150 1000.00    0 1
 0.18045469E+02 0.10083019E-01-0.97884958E-06-0.56671728E-09 0.10573995E-12    2
-0.35933623E+04-0.71687546E+02 0.41224256E+01 0.28401570E-01 0.55316013E-05    3
-0.12851118E-07 0.14841832E-11 0.17956663E+04 0.66658483E+01                   4
INT204                 0C   4H   8N   6O   4G   398.150  3998.150 1000.00    0 1
 0.34180374E+02 0.18707361E-01-0.18024009E-05-0.10464951E-08 0.19471938E-12    2
-0.65412373E+04-0.15314996E+03 0.88964310E+01 0.52211761E-01 0.98278178E-05    3
-0.23684391E-07 0.29819409E-11 0.32157944E+04-0.10965032E+02                   4
INT158                 0C   4H   8N   5O   2G   398.150  3998.150 1000.00    0 1
 0.27890734E+02 0.16903356E-01-0.16076284E-05-0.94663244E-09 0.17540200E-12    2
-0.54880493E+04-0.12148997E+03 0.67352633E+01 0.44081561E-01 0.90686053E-05    3
-0.19211853E-07 0.17416520E-11 0.27726292E+04-0.21726463E+01                   4
INT157                 0C   4H   7N   5O   2G   398.150  3998.150 1000.00    0 1
 0.26898932E+02 0.15673056E-01-0.14957402E-05-0.87738439E-09 0.16275708E-12    2
-0.53333354E+04-0.11683699E+03 0.65533566E+01 0.42365562E-01 0.82237602E-05    3
-0.19011619E-07 0.22305619E-11 0.25461514E+04-0.23192122E+01                   4
INT112                 0C   4H   8N   4O   0G   398.150  3998.150 1000.00    0 1
 0.20803131E+02 0.15445321E-01-0.14245846E-05-0.86396518E-09 0.15851499E-12    2
-0.45025073E+04-0.87536049E+02 0.43149171E+01 0.35129052E-01 0.85477450E-05    3
-0.13906983E-07 0.33685928E-13 0.21054519E+04 0.60694699E+01                   4
END

REACTIONS
2O+M<=>O2+M                              1.200E+17   -1.000        .00
H2/ 2.40/ H2O/15.40/ CH4/ 2.00/ CO/ 1.75/ CO2/ 3.60/ C2H6/ 3.00/ AR/  .83/
O+H+M<=>OH+M                             5.000E+17   -1.000        .00
H2/2.00/ H2O/6.00/ CH4/2.00/ CO/1.50/ CO2/2.00/ C2H6/3.00/ AR/ .70/
O+H2<=>H+OH                              5.000E+04    2.670    6290.00
O+HO2<=>OH+O2                            2.000E+13     .000        .00
O+H2O2<=>OH+HO2                          9.630E+06    2.000    4000.00
O+CH<=>H+CO                              5.700E+13     .000        .00
O+CH2<=>H+HCO                            8.000E+13     .000        .00
O+CH2(S)<=>H2+CO                         1.500E+13     .000        .00
O+CH2(S)<=>H+HCO                         1.500E+13     .000        .00
O+CH3<=>H+CH2O                           8.430E+13     .000        .00
O+CH4<=>OH+CH3                           1.020E+09    1.500    8600.00
O+CO+M<=>CO2+M                           6.020E+14     .000    3000.00
H2/2.00/ O2/6.00/ H2O/6.00/ CH4/2.00/ CO/1.50/ CO2/3.50/ C2H6/3.00/ AR/ .50/
O+HCO<=>OH+CO                            3.000E+13     .000        .00
O+HCO<=>H+CO2                            3.000E+13     .000        .00
O+CH2O<=>OH+HCO                          3.900E+13     .000    3540.00
O+CH2OH<=>OH+CH2O                        1.000E+13     .000        .00
O+CH3O<=>OH+CH2O                         1.000E+13     .000        .00
O+CH3OH<=>OH+CH2OH                       3.880E+05    2.500    3100.00
O+CH3OH<=>OH+CH3O                        1.300E+05    2.500    5000.00
O+C2H<=>CH+CO                            5.000E+13     .000        .00
O+C2H2<=>H+HCCO                          1.020E+07    2.000    1900.00
O+C2H2<=>OH+C2H                          4.600E+19   -1.410   28950.00
O+C2H2<=>CO+CH2                          1.020E+07    2.000    1900.00
O+C2H3<=>H+CH2CO                         3.000E+13     .000        .00
O+C2H4<=>CH3+HCO                         1.920E+07    1.830     220.00
O+C2H5<=>CH3+CH2O                        1.320E+14     .000        .00
O+C2H6<=>OH+C2H5                         8.980E+07    1.920    5690.00
O+HCCO<=>H+2CO                           1.000E+14     .000        .00
O+CH2CO<=>OH+HCCO                        1.000E+13     .000    8000.00
O+CH2CO<=>CH2+CO2                        1.750E+12     .000    1350.00
O2+CO<=>O+CO2                            2.500E+12     .000   47800.00
O2+CH2O<=>HO2+HCO                        1.000E+14     .000   40000.00
!H+O2+M<=>HO2+M                           2.800E+18    -.860        .00
!O2/ .00/ H2O/ .00/ CO/ .75/ CO2/1.50/ C2H6/1.50/ N2/ .00/ AR/ .00/
H+2O2<=>HO2+O2                           3.000E+20   -1.720        .00
H+O2+H2O<=>HO2+H2O                       9.380E+18    -.760        .00
H+O2+N2<=>HO2+N2                         3.750E+20   -1.720        .00
H+O2<=>O+OH                              8.300E+13     .000   14413.00
2H+M<=>H2+M                              1.000E+18   -1.000        .00
H2/ .00/ H2O/ .00/ CH4/2.00/ CO2/ .00/ C2H6/3.00/ AR/ .63/
2H+H2<=>2H2                              9.000E+16    -.600        .00
2H+H2O<=>H2+H2O                          6.000E+19   -1.250        .00
2H+CO2<=>H2+CO2                          5.500E+20   -2.000        .00
H+OH+M<=>H2O+M                           2.200E+22   -2.000        .00
H2/ .73/ H2O/3.65/ CH4/2.00/ C2H6/3.00/ AR/ .38/
H+HO2<=>O+H2O                            3.970E+12     .000     671.00
H+HO2<=>O2+H2                            2.800E+13     .000    1068.00
H+HO2<=>2OH                              1.340E+14     .000     635.00
H+H2O2<=>HO2+H2                          1.210E+07    2.000    5200.00
H+H2O2<=>OH+H2O                          1.000E+13     .000    3600.00
H+CH<=>C+H2                              1.100E+14     .000        .00
H+CH2(+M)<=>CH3(+M)                      2.500E+16    -.800        .00
     LOW  /  3.200E+27   -3.140   1230.00/
     TROE/   .6800   78.00  1995.00  5590.00 /
H2/2.00/ H2O/6.00/ CH4/2.00/ CO/1.50/ CO2/2.00/ C2H6/3.00/ AR/ .70/
H+CH2(S)<=>CH+H2                         3.000E+13     .000        .00
H+CH3(+M)<=>CH4(+M)                      1.270E+16    -.630     383.00
     LOW  /  2.477E+33   -4.760   2440.00/
     TROE/   .7830   74.00  2941.00  6964.00 /
H2/2.00/ H2O/6.00/ CH4/2.00/ CO/1.50/ CO2/2.00/ C2H6/3.00/ AR/ .70/
H+CH4<=>CH3+H2                           6.600E+08    1.620   10840.00
H+HCO(+M)<=>CH2O(+M)                     1.090E+12     .480    -260.00
     LOW  /  1.350E+24   -2.570   1425.00/
     TROE/   .7824  271.00  2755.00  6570.00 /
H2/2.00/ H2O/6.00/ CH4/2.00/ CO/1.50/ CO2/2.00/ C2H6/3.00/ AR/ .70/
H+HCO<=>H2+CO                            7.340E+13     .000        .00
H+CH2O(+M)<=>CH2OH(+M)                   5.400E+11     .454    3600.00
     LOW  /  1.270E+32   -4.820   6530.00/
     TROE/   .7187  103.00  1291.00  4160.00 /
H2/2.00/ H2O/6.00/ CH4/2.00/ CO/1.50/ CO2/2.00/ C2H6/3.00/
H+CH2O(+M)<=>CH3O(+M)                    5.400E+11     .454    2600.00
     LOW  /  2.200E+30   -4.800   5560.00/
     TROE/   .7580   94.00  1555.00  4200.00 /
H2/2.00/ H2O/6.00/ CH4/2.00/ CO/1.50/ CO2/2.00/ C2H6/3.00/
H+CH2O<=>HCO+H2                          2.300E+10    1.050    3275.00
H+CH2OH(+M)<=>CH3OH(+M)                  1.800E+13     .000        .00
     LOW  /  3.000E+31   -4.800   3300.00/
     TROE/   .7679  338.00  1812.00  5081.00 /
H2/2.00/ H2O/6.00/ CH4/2.00/ CO/1.50/ CO2/2.00/ C2H6/3.00/
H+CH2OH<=>H2+CH2O                        2.000E+13     .000        .00
H+CH2OH<=>OH+CH3                         1.200E+13     .000        .00
H+CH2OH<=>CH2(S)+H2O                     6.000E+12     .000        .00
H+CH3O(+M)<=>CH3OH(+M)                   5.000E+13     .000        .00
     LOW  /  8.600E+28   -4.000   3025.00/
     TROE/   .8902  144.00  2838.00 45569.00 /
H2/2.00/ H2O/6.00/ CH4/2.00/ CO/1.50/ CO2/2.00/ C2H6/3.00/
H+CH3O<=>H+CH2OH                         3.400E+06    1.600        .00
H+CH3O<=>H2+CH2O                         2.000E+13     .000        .00
H+CH3O<=>OH+CH3                          3.200E+13     .000        .00
H+CH3O<=>CH2(S)+H2O                      1.600E+13     .000        .00
H+CH3OH<=>CH2OH+H2                       1.700E+07    2.100    4870.00
H+CH3OH<=>CH3O+H2                        4.200E+06    2.100    4870.00
H+C2H(+M)<=>C2H2(+M)                     1.000E+17   -1.000        .00
     LOW  /  3.750E+33   -4.800   1900.00/
     TROE/   .6464  132.00  1315.00  5566.00 /
H2/2.00/ H2O/6.00/ CH4/2.00/ CO/1.50/ CO2/2.00/ C2H6/3.00/ AR/ .70/
H+C2H2(+M)<=>C2H3(+M)                    5.600E+12     .000    2400.00
     LOW  /  3.800E+40   -7.270   7220.00/
     TROE/   .7507   98.50  1302.00  4167.00 /
H2/2.00/ H2O/6.00/ CH4/2.00/ CO/1.50/ CO2/2.00/ C2H6/3.00/ AR/ .70/
H+C2H3(+M)<=>C2H4(+M)                    6.080E+12     .270     280.00
     LOW  /  1.400E+30   -3.860   3320.00/
     TROE/   .7820  207.50  2663.00  6095.00 /
H2/2.00/ H2O/6.00/ CH4/2.00/ CO/1.50/ CO2/2.00/ C2H6/3.00/ AR/ .70/
H+C2H3<=>H2+C2H2                         3.000E+13     .000        .00
H+C2H4(+M)<=>C2H5(+M)                    1.080E+12     .454    1820.00
     LOW  /  1.200E+42   -7.620   6970.00/
     TROE/   .9753  210.00   984.00  4374.00 /
H2/2.00/ H2O/6.00/ CH4/2.00/ CO/1.50/ CO2/2.00/ C2H6/3.00/ AR/ .70/
H+C2H4<=>C2H3+H2                         1.325E+06    2.530   12240.00
H+C2H5(+M)<=>C2H6(+M)                    5.210E+17    -.990    1580.00
     LOW  /  1.990E+41   -7.080   6685.00/
     TROE/   .8422  125.00  2219.00  6882.00 /
H2/2.00/ H2O/6.00/ CH4/2.00/ CO/1.50/ CO2/2.00/ C2H6/3.00/ AR/ .70/
H+C2H5<=>H2+C2H4                         2.000E+12     .000        .00
H+C2H6<=>C2H5+H2                         1.150E+08    1.900    7530.00
H+HCCO<=>CH2(S)+CO                       1.000E+14     .000        .00
H+CH2CO<=>HCCO+H2                        5.000E+13     .000    8000.00
H+CH2CO<=>CH3+CO                         1.130E+13     .000    3428.00
H+HCCOH<=>H+CH2CO                        1.000E+13     .000        .00
H2+CO(+M)<=>CH2O(+M)                     4.300E+07    1.500   79600.00
     LOW  /  5.070E+27   -3.420  84350.00/
     TROE/   .9320  197.00  1540.00 10300.00 /
H2/2.00/ H2O/6.00/ CH4/2.00/ CO/1.50/ CO2/2.00/ C2H6/3.00/ AR/ .70/
OH+H2<=>H+H2O                            2.160E+08    1.510    3430.00
2OH(+M)<=>H2O2(+M)                       7.400E+13    -.370        .00
     LOW  /  2.300E+18    -.900  -1700.00/
     TROE/   .7346   94.00  1756.00  5182.00 /
H2/2.00/ H2O/6.00/ CH4/2.00/ CO/1.50/ CO2/2.00/ C2H6/3.00/ AR/ .70/
2OH<=>O+H2O                              3.570E+04    2.400   -2110.00
OH+HO2<=>O2+H2O                          2.900E+13     .000    -500.00
OH+H2O2<=>HO2+H2O                        1.750E+12     .000     320.00
 DUPLICATE
OH+H2O2<=>HO2+H2O                        5.800E+14     .000    9560.00
 DUPLICATE
OH+C<=>H+CO                              5.000E+13     .000        .00
OH+CH<=>H+HCO                            3.000E+13     .000        .00
OH+CH2<=>H+CH2O                          2.000E+13     .000        .00
OH+CH2<=>CH+H2O                          1.130E+07    2.000    3000.00
OH+CH2(S)<=>H+CH2O                       3.000E+13     .000        .00
OH+CH3(+M)<=>CH3OH(+M)                   6.300E+13     .000        .00
     LOW  /  2.700E+38   -6.300   3100.00/
     TROE/   .2105   83.50  5398.00  8370.00 /
H2/2.00/ H2O/6.00/ CH4/2.00/ CO/1.50/ CO2/2.00/ C2H6/3.00/
OH+CH3<=>CH2+H2O                         5.600E+07    1.600    5420.00
OH+CH3<=>CH2(S)+H2O                      2.501E+13     .000        .00
OH+CH4<=>CH3+H2O                         1.000E+08    1.600    3120.00
OH+CO<=>H+CO2                            4.760E+07    1.228      70.00
OH+HCO<=>H2O+CO                          5.000E+13     .000        .00
OH+CH2O<=>HCO+H2O                        3.430E+09    1.180    -447.00
OH+CH2OH<=>H2O+CH2O                      5.000E+12     .000        .00
OH+CH3O<=>H2O+CH2O                       5.000E+12     .000        .00
OH+CH3OH<=>CH2OH+H2O                     1.440E+06    2.000    -840.00
OH+CH3OH<=>CH3O+H2O                      6.300E+06    2.000    1500.00
OH+C2H<=>H+HCCO                          2.000E+13     .000        .00
OH+C2H2<=>H+CH2CO                        2.180E-04    4.500   -1000.00
OH+C2H2<=>H+HCCOH                        5.040E+05    2.300   13500.00
OH+C2H2<=>C2H+H2O                        3.370E+07    2.000   14000.00
OH+C2H2<=>CH3+CO                         4.830E-04    4.000   -2000.00
OH+C2H3<=>H2O+C2H2                       5.000E+12     .000        .00
OH+C2H4<=>C2H3+H2O                       3.600E+06    2.000    2500.00
OH+C2H6<=>C2H5+H2O                       3.540E+06    2.120     870.00
OH+CH2CO<=>HCCO+H2O                      7.500E+12     .000    2000.00
2HO2<=>O2+H2O2                           1.300E+11     .000   -1630.00
 DUPLICATE
2HO2<=>O2+H2O2                           4.200E+14     .000   12000.00
 DUPLICATE
HO2+CH2<=>OH+CH2O                        2.000E+13     .000        .00
HO2+CH3<=>O2+CH4                         1.000E+12     .000        .00
HO2+CH3<=>OH+CH3O                        2.000E+13     .000        .00
HO2+CO<=>OH+CO2                          1.500E+14     .000   23600.00
HO2+CH2O<=>HCO+H2O2                      1.000E+12     .000    8000.00
C+O2<=>O+CO                              5.800E+13     .000     576.00
C+CH2<=>H+C2H                            5.000E+13     .000        .00
C+CH3<=>H+C2H2                           5.000E+13     .000        .00
CH+O2<=>O+HCO                            3.300E+13     .000        .00
CH+H2<=>H+CH2                            1.107E+08    1.790    1670.00
CH+H2O<=>H+CH2O                          1.713E+13     .000    -755.00
CH+CH2<=>H+C2H2                          4.000E+13     .000        .00
CH+CH3<=>H+C2H3                          3.000E+13     .000        .00
CH+CH4<=>H+C2H4                          6.000E+13     .000        .00
CH+CO(+M)<=>HCCO(+M)                     5.000E+13     .000        .00
     LOW  /  2.690E+28   -3.740   1936.00/
     TROE/   .5757  237.00  1652.00  5069.00 /
H2/2.00/ H2O/6.00/ CH4/2.00/ CO/1.50/ CO2/2.00/ C2H6/3.00/ AR/ .70/
CH+CO2<=>HCO+CO                          3.400E+12     .000     690.00
CH+CH2O<=>H+CH2CO                        9.460E+13     .000    -515.00
CH+HCCO<=>CO+C2H2                        5.000E+13     .000        .00
CH2+O2<=>OH+HCO                          1.320E+13     .000    1500.00
CH2+H2<=>H+CH3                           5.000E+05    2.000    7230.00
2CH2<=>H2+C2H2                           3.200E+13     .000        .00
CH2+CH3<=>H+C2H4                         4.000E+13     .000        .00
CH2+CH4<=>2CH3                           2.460E+06    2.000    8270.00
CH2+CO(+M)<=>CH2CO(+M)                   8.100E+11     .500    4510.00
     LOW  /  2.690E+33   -5.110   7095.00/
     TROE/   .5907  275.00  1226.00  5185.00 /
H2/2.00/ H2O/6.00/ CH4/2.00/ CO/1.50/ CO2/2.00/ C2H6/3.00/ AR/ .70/
CH2+HCCO<=>C2H3+CO                       3.000E+13     .000        .00
CH2(S)+N2<=>CH2+N2                       1.500E+13     .000     600.00
CH2(S)+AR<=>CH2+AR                       9.000E+12     .000     600.00
CH2(S)+O2<=>H+OH+CO                      2.800E+13     .000        .00
CH2(S)+O2<=>CO+H2O                       1.200E+13     .000        .00
CH2(S)+H2<=>CH3+H                        7.000E+13     .000        .00
CH2(S)+H2O(+M)<=>CH3OH(+M)               2.000E+13     .000        .00
     LOW  /  2.700E+38   -6.300   3100.00/
     TROE/   .1507  134.00  2383.00  7265.00 /
H2/2.00/ H2O/6.00/ CH4/2.00/ CO/1.50/ CO2/2.00/ C2H6/3.00/
CH2(S)+H2O<=>CH2+H2O                     3.000E+13     .000        .00
CH2(S)+CH3<=>H+C2H4                      1.200E+13     .000    -570.00
CH2(S)+CH4<=>2CH3                        1.600E+13     .000    -570.00
CH2(S)+CO<=>CH2+CO                       9.000E+12     .000        .00
CH2(S)+CO2<=>CH2+CO2                     7.000E+12     .000        .00
CH2(S)+CO2<=>CO+CH2O                     1.400E+13     .000        .00
CH2(S)+C2H6<=>CH3+C2H5                   4.000E+13     .000    -550.00
CH3+O2<=>O+CH3O                          2.675E+13     .000   28800.00
CH3+O2<=>OH+CH2O                         3.600E+10     .000    8940.00
CH3+H2O2<=>HO2+CH4                       2.450E+04    2.470    5180.00
2CH3(+M)<=>C2H6(+M)                      2.120E+16    -.970     620.00
     LOW  /  1.770E+50   -9.670   6220.00/
     TROE/   .5325  151.00  1038.00  4970.00 /
H2/2.00/ H2O/6.00/ CH4/2.00/ CO/1.50/ CO2/2.00/ C2H6/3.00/ AR/ .70/
2CH3<=>H+C2H5                            4.990E+12     .100   10600.00
CH3+HCO<=>CH4+CO                         2.648E+13     .000        .00
CH3+CH2O<=>HCO+CH4                       3.320E+03    2.810    5860.00
CH3+CH3OH<=>CH2OH+CH4                    3.000E+07    1.500    9940.00
CH3+CH3OH<=>CH3O+CH4                     1.000E+07    1.500    9940.00
CH3+C2H4<=>C2H3+CH4                      2.270E+05    2.000    9200.00
CH3+C2H6<=>C2H5+CH4                      6.140E+06    1.740   10450.00
HCO+H2O<=>H+CO+H2O                       2.244E+18   -1.000   17000.00
HCO+M<=>H+CO+M                           1.870E+17   -1.000   17000.00
H2/2.00/ H2O/ .00/ CH4/2.00/ CO/1.50/ CO2/2.00/ C2H6/3.00/
HCO+O2<=>HO2+CO                          7.600E+12     .000     400.00
CH2OH+O2<=>HO2+CH2O                      1.800E+13     .000     900.00
CH3O+O2<=>HO2+CH2O                       4.280E-13    7.600   -3530.00
C2H+O2<=>HCO+CO                          5.000E+13     .000    1500.00
C2H+H2<=>H+C2H2                          4.070E+05    2.400     200.00
C2H3+O2<=>HCO+CH2O                       3.980E+12     .000    -240.00
C2H4(+M)<=>H2+C2H2(+M)                   8.000E+12     .440   88770.00
     LOW  /  7.000E+50   -9.310  99860.00/
     TROE/   .7345  180.00  1035.00  5417.00 /
H2/2.00/ H2O/6.00/ CH4/2.00/ CO/1.50/ CO2/2.00/ C2H6/3.00/ AR/ .70/
C2H5+O2<=>HO2+C2H4                       8.400E+11     .000    3875.00
HCCO+O2<=>OH+2CO                         1.600E+12     .000     854.00
2HCCO<=>2CO+C2H2                         1.000E+13     .000        .00
N+NO<=>N2+O                              3.500E+13     .000     330.00
N+O2<=>NO+O                              2.650E+12     .000    6400.00
N+OH<=>NO+H                              7.333E+13     .000    1120.00
N2O+O<=>N2+O2                            1.400E+12     .000   10810.00
N2O+O<=>2NO                              2.900E+13     .000   23150.00
N2O+H<=>N2+OH                            4.400E+14     .000   18880.00
N2O+OH<=>N2+HO2                          2.000E+12     .000   21060.00
N2O(+M)<=>N2+O(+M)                       1.300E+11     .000   59620.00
     LOW  /  6.200E+14     .000  56100.00/
H2/2.00/ H2O/6.00/ CH4/2.00/ CO/1.50/ CO2/2.00/ C2H6/3.00/ AR/ .70/
HO2+NO<=>NO2+OH                          2.110E+12     .000    -480.00
!NO+O+M<=>NO2+M                           1.060E+20   -1.410        .00  !removed this on 3/23/01
!H2/2.00/ H2O/6.00/ CH4/2.00/ CO/1.50/ CO2/2.00/ C2H6/3.00/ AR/ .70/
NO2+O<=>NO+O2                            3.900E+12     .000    -240.00
NO2+H<=>NO+OH                            1.320E+14     .000     360.00
NH+O<=>NO+H                              5.000E+13     .000        .00
NH+H<=>N+H2                              3.200E+13     .000     330.00
NH+OH<=>HNO+H                            2.000E+13     .000        .00
NH+OH<=>N+H2O                            2.000E+09    1.200        .00
NH+O2<=>HNO+O                            4.610E+05    2.000    6500.00
NH+O2<=>NO+OH                            1.280E+06    1.500     100.00
NH+N<=>N2+H                              1.500E+13     .000        .00
NH+H2O<=>HNO+H2                          2.000E+13     .000   13850.00
NH+NO<=>N2+OH                            2.160E+13    -.230        .00
NH+NO<=>N2O+H                            4.160E+14    -.450        .00
NH2+O<=>OH+NH                            7.000E+12     .000        .00
NH2+O<=>H+HNO                            4.600E+13     .000        .00
NH2+H<=>NH+H2                            4.000E+13     .000    3650.00
NH2+OH<=>NH+H2O                          9.000E+07    1.500    -460.00
NNH<=>N2+H                               3.300E+08     .000        .00
NNH+M<=>N2+H+M                           1.300E+14    -.110    4980.00
H2/2.00/ H2O/6.00/ CH4/2.00/ CO/1.50/ CO2/2.00/ C2H6/3.00/ AR/ .70/
NNH+O2<=>HO2+N2                          5.000E+12     .000        .00
NNH+O<=>OH+N2                            2.500E+13     .000        .00
NNH+O<=>NH+NO                            7.000E+13     .000        .00
NNH+H<=>H2+N2                            5.000E+13     .000        .00
NNH+OH<=>H2O+N2                          2.000E+13     .000        .00
NNH+CH3<=>CH4+N2                         2.500E+13     .000        .00
!H+NO+M<=>HNO+M                           8.950E+19   -1.320     740.00   !removed 3/23/01
!H2/2.00/ H2O/6.00/ CH4/2.00/ CO/1.50/ CO2/2.00/ C2H6/3.00/ AR/ .70/
HNO+O<=>NO+OH                            2.500E+13     .000        .00
HNO+H<=>H2+NO                            4.500E+11     .720     660.00
HNO+OH<=>NO+H2O                          1.300E+07    1.900    -950.00
HNO+O2<=>HO2+NO                          1.000E+13     .000   13000.00
CN+O<=>CO+N                              7.700E+13     .000        .00