! This is the hydrogen oxidation mechanism from
! U. Maas & J. Warnatz, "Ignition Processes in Hydrogen-Oxygen Mixtures",
! Comb. & Flame, vol. 74, pp. 53-69, 1988.
!
! simplified to Section 3.2.2 (pp 77) of Eckett's PhD Thesis

ELEMENTS  O END
SPECIES   O2 O END

REACTIONS           JOULES/MOLE
   O+O+M<=>O2+M                     2.90E+17 -1.00      0   ! 13
     O2/0.35/
END
