ELEMENTS
O  H  C  N
END

SPECIES
NC12H26          H                O                OH               
HO2              H2               H2O              H2O2             
O2               CH2              CH2D             CH3              
CH4              HCO              CH2O             CH3O             
CO               CO2              C2H2             C2H3             
C2H4             C2H5             C2H6             CH2CHO           
aC3H5            C3H6             nC3H7            C2H3CHO          
C4H7             C4H81            pC4H9            C5H9             
C5H10            PXC5H11          C6H12            PXC6H13          
C7H14            PXC7H15          C8H16            PXC8H17          
C9H18            PXC9H19          C10H20           PXC10H21         
PXC12H25         SXC12H25         S3XC12H25        C12H24           
C12H25O2         C12OOH           O2C12H24OOH      OC12H23OOH       
N2               
END

TRANS ALL
NC12H26            2   789.980     7.047     0.000     0.000     1.000          
H                  0   145.000     2.050     0.000     0.000     0.000          
O                  0    80.000     2.750     0.000     0.000     0.000          
OH                 1    80.000     2.750     0.000     0.000     0.000          
HO2                2   107.400     3.458     0.000     0.000     1.000          
H2                 1    38.000     2.920     0.000     0.790   280.000          
H2O                2   572.400     2.605     1.844     0.000     4.000          
H2O2               2   107.400     3.458     0.000     0.000     3.800          
O2                 1   107.400     3.458     0.000     1.600     3.800          
CH2                1   144.000     3.800     0.000     0.000     0.000          
CH2D               1   144.000     3.800     0.000     0.000     0.000          
CH3                1   144.000     3.800     0.000     0.000     0.000          
CH4                2   141.400     3.746     0.000     2.600    13.000          
HCO                2   498.000     3.590     0.000     0.000     0.000          
CH2O               2   498.000     3.590     0.000     0.000     2.000          
CH3O               2   417.000     3.690     1.700     0.000     2.000          
CO                 1    98.100     3.650     0.000     1.950     1.800          
CO2                1   244.000     3.763     0.000     2.650     2.100          
C2H2               1   209.000     4.100     0.000     0.000     2.500          
C2H3               2   209.000     4.100     0.000     0.000     1.000          
C2H4               2   280.800     3.971     0.000     0.000     1.500          
C2H5               2   252.300     4.302     0.000     0.000     1.500          
C2H6               2   252.300     4.302     0.000     0.000     1.500          
CH2CHO             2   436.000     3.970     0.000     0.000     2.000          
aC3H5              2   266.800     4.982     0.000     0.000     1.000          
C3H6               2   266.800     4.982     0.000     0.000     1.000          
nC3H7              2   266.800     4.982     0.000     0.000     1.000          
C2H3CHO            2   357.000     5.176     0.000     0.000     1.000          
C4H7               2   357.000     5.176     0.000     0.000     1.000          
C4H81              2   357.000     5.176     0.000     0.000     1.000          
pC4H9              2   357.000     5.176     0.000     0.000     1.000          
C5H9               2   448.508     5.342     0.000     0.000     1.000          
C5H10              2   448.508     5.342     0.000     0.000     1.000          
PXC5H11            2   458.182     5.445     0.000     0.000     1.000          
C6H12              2   504.629     5.628     0.000     0.000     1.000          
PXC6H13            2   512.225     5.742     0.000     0.000     1.000          
C7H14              2   557.947     5.876     0.000     0.000     1.000          
PXC7H15            2   564.030     6.004     0.000     0.000     1.000          
C8H16              2   608.488     6.100     0.000     0.000     1.000          
PXC8H17            2   613.127     6.250     0.000     0.000     1.000          
C9H18              2   655.390     6.331     0.000     0.000     1.000          
PXC9H19            2   660.032     6.467     0.000     0.000     1.000          
C10H20             2   698.122     6.578     0.000     0.000     1.000          
PXC10H21           2   704.917     6.675     0.000     0.000     1.000          
PXC12H25           2   789.980     7.047     0.000     0.000     1.000          
SXC12H25           2   789.980     7.047     0.000     0.000     1.000          
S3XC12H25          2   789.980     7.047     0.000     0.000     1.000          
C12H24             2   775.294     7.090     0.000     0.000     1.000          
C12H25O2           2   805.031     7.102     0.000     0.000     1.000          
C12OOH             2   805.031     7.102     0.000     0.000     1.000          
O2C12H24OOH        2   877.052     7.457     0.000     0.000     1.000          
OC12H23OOH         2   839.348     7.273     0.000     0.000     1.000          
N2                 1    97.530     3.621     0.000     1.760     4.000          
END

REACTIONS
!R1
 H+O2<=>OH+O                                  9.756e+13    0.000  14842.26   
!R2
 O+H2<=>H+OH                                  4.589E+04    2.700   6260.00 
!R3
 OH+H2<=>H2O+H                                1.024e+08    1.600   3298.28                                                                                                                                   
!R4
 OH+OH<=>O+H2O                                3.973E+04    2.400  -2110.00 
!R5
 H+O2(+M)<=>HO2(+M)                           5.116E+12    0.440     0.00 
 LOW / 6.328E+19  -1.400     0.00 /
 TROE/ 0.5  1E-30  1E+30         /
 O2/0.85/  H2O/11.89/ CO/1.09/ CO2/2.18/ 
!R6
 HO2+H<=>OH+OH                                7.485E+13    0.000   295.00 
!R7
 H2+O2<=>HO2+H                                5.916E+05   2.433  53502.00 
!R8
 HO2+OH<=>H2O+O2                              2.891e+13    0.000   -501.91                                                                                                                                   
!R9
 HO2+H<=>O+H2O                                3.970E+12    0.000   671.00 
!R10
 HO2+O<=>OH+O2                                4.000E+13    0.000     0.00 
!R11
 HO2+HO2<=>O2+H2O2                            1.300E+11    0.000 -1630.00 
  DUPLICATE
!R12
 HO2+HO2<=>O2+H2O2                            3.658E+14    0.000 12000.00 
  DUPLICATE
!R13
 H2O2+H<=>OH+H2O                              2.410E+13    0.000   3970.00 
!R14
 H2O2+H<=>HO2+H2                              6.050E+06    2.000   5200.00 
!R15
 H2O2+O<=>OH+HO2                              9.630E+06    2.000   3970.00 
!R16
 H2O2+OH<=>HO2+H2O                            2.000E+12    0.000    427.00 
  DUPLICATE
!R17
 H2O2+OH<=>HO2+H2O                            2.670E+41   -7.000  37600.00 
  DUPLICATE                                               
!R18
 OH+OH(+M)<=>H2O2(+M)                         1.110E+14  -0.370      0.00 
 LOW  /  2.010E+17  -0.584  -2293.00 /
 TROE / 0.7346   94.  1756.00  5182.0 /
 H2/2.0/ H2O/6.00/ CO/1.75/ CO2/3.6/ 
!R19
 H+H+M<=>H2+M                                 1.780E+18  -1.000      0.00 
 H2/0.0/ H2O/0.0/ CO2/0.0/ 
!R20
 H+OH+M<=>H2O+M                               4.400E+22  -2.000      0.00 
 H2/2.0/ H2O/6.30/ CO/1.75/ CO2/3.6/ 
!R21
 O+O+M<=>O2+M                                 1.200E+17  -1.000      0.00 
 H2/2.4/ H2O/15.4/  CO/1.75/ CO2/3.6/ 
!R22
 H+H+H2<=>H2+H2                               9.000E+16  -0.600      0.00 
!R23
 H+H+H2O<=>H2+H2O                             5.624E+19  -1.250      0.00 
!R24
 H+H+CO2<=>H2+CO2                             5.500E+20  -2.000      0.00 
!R25
 O+H+M<=>OH+M                                 9.428E+18  -1.000      0.00  
 H2/2.0/ H2O/12.0/ CO/1.75/ CO2/3.6/ 
!R26
 CO+OH<=>CO2+H                                7.046E+04    2.053  -355.67  
   DUPLICATE
!R27
 CO+OH<=>CO2+H                                5.757E+12   -0.664   331.83  
   DUPLICATE
!R28
 CO+HO2<=>CO2+OH                              1.570E+05    2.180  17942.61 
!R29
 CO+O(+M)=CO2(+M)                             1.362E+10    0.000   2384.00 
 LOW / 1.173E+24   -2.79    4191.   / 
 H2/2.0/ H2O/12/ CO/1.75/ CO2/3.6/ 
!R30
 CO+O2<=>CO2+O                                1.119E+12    0.000  47700.00 
!R31
 HCO+M<=>CO+H+M                               1.870E+17   -1.000  17000.00 
 H2/2.0/ H2O/0.0/ CO/1.75/ CO2/3.6/
!R32
 HCO+H<=>CO+H2                                1.200E+14    0.000      0.00 
!R33
 HCO+O<=>CO+OH                                3.000E+13    0.000      0.00 
!R34
 HCO+O<=>CO2+H                                3.000E+13    0.000      0.00 
!R35
 HCO+OH<=>CO+H2O                              3.020E+13    0.000      0.00 
!R36
 HCO+O2<=>CO+HO2                              1.204E+10    0.807   -727.00 
!R37
 HCO+H2O<=>CO+H+H2O                           2.244E+18   -1.000  17000.00 
!R38
 CO+H2(+M)<=>CH2O(+M)                          4.300E+07    1.500  79600.00  
 LOW  /  5.070E+27   -3.420  84350.00  /
 TROE/  0.9320  197.00  1540.00 10300. /
 H2/2.0/ H2O/6.0/ CH4/2.0/ CO/1.5/ CO2/2.0/ C2H6/3.0/
!R39
 HCO+H(+M)<=>CH2O(+M)                         1.090E+12    0.480   -260.00  
 LOW  /  1.350E+24   -2.570   1425.00  /
 TROE/  0.7824  271.0  2755.00  6570.0 /
 H2/2.0/ H2O/6.0/ CH4/2.0/ CO/1.5/ CO2/2.0/ C2H6/3.0/
!R40
 CH2+H(+M)<=>CH3(+M)                          2.500E+16   -0.800      0.00 
 LOW  /  3.200E+27   -3.140   1230.00  /
 TROE/  0.6800   78.00  1995.0  5590.0 /
 H2/2.0/ H2O/6.0/ CH4/2.0/ CO/1.5/ CO2/2.0/ C2H6/3.0/
!R41
 CH2+O<=>HCO+H                                8.000E+13    0.000      0.00  
!R42
 CH2+OH<=>CH2O+H                              2.000E+13    0.000      0.00  
!R43
 CH2+H2<=>H+CH3                               5.000E+05    2.000   7230.00  
!R44
 CH2+O2<=>HCO+OH                              1.060E+13    0.000   1500.00  
!R45
 CH2+O2<=>CO2+H+H                             2.640E+12    0.000   1500.00  
!R46
 CH2+HO2<=>CH2O+OH                            2.000E+13    0.000      0.00  
!R47
 CH2+CH2<=>C2H2+H2                            3.200E+13    0.000      0.00  
!R48
 CH2D+N2<=>CH2+N2                             1.500E+13    0.000    600.00  
!R50
 CH2D+O<=>CO+H2                               1.500E+13    0.000      0.00  
!R51
 CH2D+O<=>HCO+H                               1.500E+13    0.000      0.00  
!R52
 CH2D+OH<=>CH2O+H                             3.000E+13    0.000      0.00  
!R53
 CH2D+H2<=>CH3+H                              7.000E+13    0.000      0.00  
!R54
 CH2D+O2<=>H+OH+CO                            2.800E+13    0.000      0.00  
!R55
 CH2D+O2<=>CO+H2O                             1.200E+13    0.000      0.00  
!R56
 CH2D+H2O<=>CH2+H2O                           3.000E+13    0.000      0.00  
!R57
 CH2D+CO<=>CH2+CO                             9.000E+12    0.000      0.00  
!R58
 CH2D+CO2<=>CH2+CO2                           7.000E+12    0.000      0.00  
!R59
 CH2D+CO2<=>CH2O+CO                           1.400E+13    0.000      0.00  
!R60
 CH2O+H(+M)<=>CH3O(+M)                        5.400E+11    0.454   2600.00  
 LOW  /  2.200E+30   -4.800   5560.00  /
 TROE/  0.7580   94.00  1555.0 4200.00 /
 H2/2.0/ H2O/6.0/ CH4/2.0/ CO/1.5/ CO2/2.0/ C2H6/3.0/
!R61
 CH2O+H<=>HCO+H2                              2.300E+10    1.050   3275.00  
!R62
 CH2O+O<=>HCO+OH                              3.900E+13    0.000   3540.00  
!R63
 CH2O+OH<=>HCO+H2O                            3.430E+09    1.180   -447.00  
!R64
 CH2O+O2<=>HCO+HO2                            1.000E+14    0.000  40000.00  
!R65
 CH2O+HO2<=>HCO+H2O2                          1.000E+12    0.000   8000.00  
!R66
 CH3+H(+M)<=>CH4(+M)                          1.270E+16   -0.630    383.00  
 LOW  /   2.477E+33   -4.760   2440.00  /
 TROE/  0.7830   74.00  2941.00  6964.0 /
 H2/2.0/ H2O/6.0/ CH4/2.0/ CO/1.5/ CO2/2.0/ C2H6/3.0/
!R67
 CH3+O<=>CH2O+H                               8.430E+13    0.000      0.00  
!R68
 CH3+OH<=>CH2+H2O                             5.600E+07    1.600   5420.00  
!R69
 CH3+OH<=>CH2D+H2O                            2.501E+13    0.000      0.00  
!R70
 CH3+O2<=>O+CH3O                              3.083E+13    0.000  28800.00  
!R71
 CH3+O2<=>OH+CH2O                             3.600E+10    0.000   8940.00  
!R72
 CH3+HO2<=>CH4+O2                             1.000E+12    0.000      0.00  
!R73
 CH3+HO2<=>CH3O+OH                            1.340E+13    0.000      0.00  
!R74
 CH3+H2O2<=>CH4+HO2                           2.450E+04    2.470   5180.00  
!R75
 CH3+HCO<=>CH4+CO                             8.480E+12    0.000      0.00  
!R76
 CH3+CH2O<=>CH4+HCO                           3.320E+03    2.810   5860.00  
!R77
 CH3+CH2<=>C2H4+H                             4.000E+13    0.000      0.00  
!R78
 CH3+CH2D<=>C2H4+H                            1.200E+13    0.000   -570.00  
!R79
 CH3+CH3(+M)<=>C2H6(+M)                       2.120E+16   -0.970    620.00  
 LOW  /  1.770E+50   -9.670   6220.00  /
 TROE/  0.5325  151.0  1038.00  4970.0 /
 H2/2.0/ H2O/6.0/ CH4/2.0/ CO/1.5/ CO2/2.0/ C2H6/3.0/
!R80
 CH3+CH3<=>H+C2H5                             4.990E+12    0.100  10600.00  
!R81
 CH3O+H<=>CH2O+H2                             2.000E+13    0.000      0.00  
!R82
 CH3O+H<=>CH3+OH                              3.200E+13    0.000      0.00  
!R83
 CH3O+H<=>CH2D+H2O                            1.600E+13    0.000      0.00  
!R84
 CH3O+O<=>CH2O+OH                             1.000E+13    0.000      0.00  
!R85
 CH3O+OH<=>CH2O+H2O                           5.000E+12    0.000      0.00  
!R86
 CH3O+O2<=>CH2O+HO2                           4.280E-13    7.600  -3530.00  
!R87
 CH4+H<=>CH3+H2                               6.600E+08    1.620 10840.00   
!R88
 CH4+O<=>CH3+OH                               1.020E+09    1.500  8600.00   
!R89
 CH4+OH<=>CH3+H2O                             1.000E+08    1.600  3120.00   
!R90
 CH4+CH2<=>CH3+CH3                            2.460E+06    2.000  8270.00   
!R91
 CH4+CH2D<=>CH3+CH3                           1.600E+13    0.000  -570.00   
!R92
 C2H3 (+M)<=>C2H2+H (+M)                      3.860E+07    1.620  37048.2   
 LOW  /  2.565E+27   -3.400  35798.72  /
 TROE/  1.9816  5383.7  4.2932 -0.0795 /
 H2/2.0/ H2O/6.0/ CH4/2.0/ CO/1.5/ CO2/2.0/ C2H6/3.0/ C2H2/3.00/ C2H4/3.00/
!R93
 C2H2+O<=>CH2+CO                              4.080E+06    2.000   1900.00  
!R94
 C2H2+OH<=>CH3+CO                             4.830E-04    4.000  -2000.00  
!R95
 C2H2+HCO<=>C2H3+CO                           1.000E+07    2.000   6000.00  
!R96
 C2H2+CH3<=>aC3H5                             2.68E+53    -12.82   35730.0  
!R97
 C2H3+H(+M)<=>C2H4(+M)                        6.080E+12    0.270     280.00 
 LOW  /  1.400E+30   -3.860    3320.00 /
 TROE/  0.7820  207.50  2663.00  6095.00/
 H2/2.0/ H2O/6.0/ CH4/2.0/ CO/1.5/ CO2/2.0/ C2H6/3.0/ C2H2/3.00/ C2H4/3.00/
!R98
 C2H3+H<=>C2H2+H2                             9.000E+13    0.000       0.00 
!R99
 C2H3+O<=>CH3+CO                              4.800E+13    0.000       0.00 
!R100
 C2H3+OH<=>C2H2+H2O                           3.011E+13    0.000       0.00 
!R101
 C2H3+O2<=>C2H2+HO2                           1.340E+06    1.610    -383.40 
!R102
 C2H3+O2<=>CH2CHO+O                           3.000E+11    0.290      11.00 
!R103
 C2H3+O2<=>HCO+CH2O                           4.600E+16   -1.390    1010.00 
!R104
 C2H3+HO2<=>CH2CHO+OH                         1.000E+13    0.000       0.00 
!R105
 C2H3+H2O2<=>C2H4+HO2                         1.210E+10    0.000    -596.00 
!R106
 C2H3+HCO<=>C2H4+CO                           9.033E+13    0.000       0.00 
!R107
 C2H3+HCO<=>C2H3CHO                           1.800E+13    0.00        0.0  
!R108
 C2H3+CH3<=>C2H2+CH4                          3.920E+11    0.000       0.00 
!R109
 C2H3+CH3 (+M)<=>C3H6(+M)                     2.500E+13    0.000       0.00 
 LOW  / 4.270E+58  -11.940    9769.80 /
 TROE / 0.175  1340.6 60000.0 10139.8 /
 H2/2/ H2O/6/ CH4/2/ CO/1.5/ CO2/2/ C2H6/3/C2H2/3.00/ C2H4/3.00/
!R110
 C2H3+CH3<=>aC3H5+H                           1.500E+24   -2.830    18618.0 
!R111
 C2H3+C2H3<=>C2H2+C2H4                        9.600E+11    0.00        0.  
!R112
 CH2CHO<=>CH3+CO                              7.800E+41   -9.147   46900.00 
!R113
 CH2CHO+H<=>CH3+HCO                           9.000E+13    0.000       0.00 
!R114
 CH2CHO+O2<=>CH2O+CO+OH                       1.800E+10    0.000       0.00 
!R115
 C2H4+H(+M)<=>C2H5(+M)                        3.975e+09    1.280   1290.63
 LOW  /  4.715e+18    0.000    755.26 /                                                                                                                                                             
 TROE/    0.76    40.00   1025.00        /
 H2/2.0/ H2O/6.0/ CH4/2.0/ CO/1.5/ CO2/2.0/ C2H6/3.0/
!R116
 C2H4+H<=>C2H3+H2                             5.070E+07    1.900  12950.00  
!R117
 C2H4+O<=>C2H3+OH                             1.510E+07    1.900   3740.00  
!R118
 C2H4+O<=>CH3+HCO                             1.920E+07    1.830    220.00  
!R119
 C2H4+O<=>CH2+CH2O                            3.840E+05    1.830    220.00  
!R120
 C2H4+OH<=>C2H3+H2O                           3.600E+06    2.000   2500.00  
!R121
 C2H4+HCO<=>C2H5+CO                           1.000E+07    2.000   8000.00  
!R122
 C2H4+CH2<=>aC3H5+H                           2.000E+13    0.000   6000.00  
!R123
 C2H4+CH2D<=>aC3H5+H                          5.000E+13    0.000      0.00  
!R124
 C2H4+CH3<=>C2H3+CH4                          2.270E+05    2.000   9200.00  
!R125
 nC3H7<=>CH3+C2H4                        9.600e+13    0.000  31022.94                                                                                                                                   
!R126
 C2H4+O2<=>C2H3+HO2                           4.220E+13    0.000  60800.00  
!R127
 C2H4+C2H3<=>C4H7                             7.93E+38    -8.47    14220.0  
!R128
 C2H5+H(+M)<=>C2H6(+M)                        5.210E+17   -0.990  1580.00  
 LOW  / 1.990E+41   -7.080  6685.00   /
 TROE / 0.8422  125.0  2219.00 6882.0 /
 H2/2.0/ H2O/6.0/ CH4/2.0/ CO/1.5/ CO2/2.0/ C2H6/3.0/
!R129
 C2H5+H<=>C2H4+H2                             2.000E+12    0.000     0.00   
!R130
 C2H5+O<=>CH3+CH2O                            1.604E+13    0.000     0.00   
!R131
 C2H5+O2<=>C2H4+HO2                           2.000E+10    0.000     0.00   
!R132
 C2H5+HO2<=>C2H6+O2                           3.000E+11    0.000     0.00   
!R133
 C2H5+HO2<=>C2H4+H2O2                         3.000E+11    0.000     0.00   
!R134
 C2H5+HO2<=>CH3+CH2O+OH                       2.400E+13    0.000     0.00   
!R135
 C2H5+H2O2<=>C2H6+HO2                         8.700E+09    0.000   974.00   
!R136
 C2H5+C2H3(+M)<=>C4H81(+M)                    1.50E+13   0.00        0.0    
 LOW  / 1.55E+56 -11.79     8984.5    /
 TROE / 0.198 2277.9 60000.0 5723.2   /
 H2/2/ H2O/6/ CH4/2/ CO/1.5/ CO2/2/ C2H6/3/
!R137
 C2H5+C2H3<=>aC3H5+CH3                        3.90E+32  -5.22    19747.0   
!R138
 C2H6+H<=>C2H5+H2                             1.15E+08    1.900   7530.00   
!R139
 C2H6+O<=>C2H5+OH                             8.98E+07    1.920   5690.00   
!R140
 C2H6+OH<=>C2H5+H2O                           3.54E+06    2.120    870.00   
!R141
 C2H6+CH2D<=>C2H5+CH3                         4.00E+13    0.000   -550.00   
!R142
 C2H6+CH3<=>C2H5+CH4                          6.14E+06    1.740  10450.00   
!R143
 aC3H5+H(+M)<=>C3H6(+M)                       2.00E+14   0.00        0.0   
 LOW  / 1.33E+60 -12.00   5967.8      /
 TROE / 0.020  1096.6  1096.6  6859.5 /
 H2/2/ H2O/6/ CH4/2/ CO/1.5/ CO2/2/ C2H6/3/
!R144
 aC3H5+O<=>C2H3CHO+H                          6.00E+13   0.00        0.0    
!R145
 aC3H5+OH<=>C2H3CHO+H+H                       4.20E+32  -5.16    30126.0    
!R146
 aC3H5+O2<=>C2H3CHO+OH                        1.82E+13  -0.41    22859.0    
!R147
 aC3H5+HO2<=>C3H6+O2                          2.66E+12   0.00        0.0    
!R148
 aC3H5+HO2<=>OH+C2H3+CH2O                     6.60E+12   0.00        0.0    
!R149
 aC3H5+HCO<=>C3H6+CO                          6.00E+13   0.00        0.0    
!R150
 aC3H5+CH3(+M)<=>C4H81(+M)                    1.00E+14  -0.32     -262.3    
 LOW  / 3.91E+60 -12.81     6250.0    /
 TROE / 0.104  1606.0 60000.0  6118.4 /
 H2/2/ H2O/6/ CH4/2/ CO/1.5/ CO2/2/ C2H6/3/
!R151
 C3H6+H(+M)<=>nC3H7(+M)                       1.33E+13   0.00     3260.7   
 LOW  / 6.26E+38  -6.66     7000.0    /
 TROE / 1.000  1000.0  1310.0 48097.0 /
 H2/2/ H2O/6/ CH4/2/ CO/1.5/ CO2/2/ C2H6/3/
!R152
 C3H6+H<=>C2H4+CH3                            8.00E+21  -2.39    11180.0   
!R153
 C3H6+H<=>aC3H5+H2                            1.73E+05   2.50     2490.0    
!R154
 C3H6+O<=>C2H3CHO+H+H                         0.40E+08   1.65      327.0     
!R155
 C3H6+O<=>C2H5+HCO                            3.50E+07   1.65     -972.0    
!R156
 C3H6+O<=>aC3H5+OH                            1.80E+11   0.70     5880.0    
!R157
 C3H6+OH<=>aC3H5+H2O                          3.10E+06   2.00     -298.0    
!R158
 C3H6+HO2<=>aC3H5+H2O2                        9.60E+03   2.60    13910.0    
!R159
 C3H6+CH3<=>aC3H5+CH4                         2.20E+00   3.50     5675.0   
!R160
 C2H3CHO+H<=>C2H4+HCO                         1.08E+11   0.454    5820.00  
!R161
 C2H3CHO+O<=>C2H3+OH+CO                       3.00E+13   0.00     3540.00   
!R162
 C2H3CHO+OH<=>C2H3+H2O+CO                     3.43E+09   1.18     -447.00   
!R163
 nC3H7+H<=>C2H5+CH3                           3.70E+24  -2.92    12505.0    
!R164
 nC3H7+H<=>C3H6+H2                            1.80E+12   0.00       0.0     
!R165
 nC3H7+O<=>C2H5+CH2O                          9.60E+13   0.00       0.0     
!R166
 nC3H7+OH<=>C3H6+H2O                          2.40E+13   0.00       0.0     
!R167
 nC3H7+O2<=>C3H6+HO2                          9.00E+10   0.00       0.0     
!R168
 nC3H7+HO2<=>C2H5+OH+CH2O                     2.40E+13   0.00       0.0     
!R169
 nC3H7+CH3<=>CH4+C3H6                         1.10E+13   0.00       0.0     
!R170
 C4H7+H(+M)<=>C4H81(+M)                       3.60E+13   0.00         0.0   
 LOW  / 3.01E+48  -9.32      5833.6   /
 TROE / 0.498  1314.0  1314.0 50000.0 /
 H2/2/ H2O/6/ CH4/2/ CO/1.5/ CO2/2/ C2H6/3/
!R171
 C4H7+H<=>CH3+aC3H5                           2.00E+21  -2.00     11000.0   
!R172
 C4H7+HO2<=>CH2O+OH+aC3H5                     2.40E+13   0.00         0.0   
!R173
 C4H7+HCO<=>C4H81+CO                          6.00E+13   0.00         0.0   
!R174
 C4H81+H(+M)<=>pC4H9(+M)                      1.33E+13   0.00      3260.7   
 LOW  / 6.26E+38  -6.66      7000.0   /
 TROE / 1.000  1000.0  1310.0 48097.0 /
 H2/2/ H2O/6/ CH4/2/ CO/1.5/ CO2/2/ C2H6/3/
!R175
 C4H81+H<=>C2H4+C2H5                          1.60E+22  -2.39     11180.0   
!R176
 C4H81+H<=>C3H6+CH3                           3.20E+22  -2.39     11180.0   
!R177
 C4H81+H<=>C4H7+H2                            6.50E+05   2.54      6756.0   
!R178
 C4H81+O<=>nC3H7+HCO                          3.30E+08   1.45      -402.0   
!R179
 C4H81+O<=>C4H7+OH                            1.50E+13   0.00      5760.0   
    duplicate
!R180
 C4H81+O<=>C4H7+OH                            2.60E+13   0.00      4470.0   
    duplicate
!R181
 C4H81+OH<=>C4H7+H2O                          7.00E+02   2.66       527.0   
!R182
 C4H81+O2<=>C4H7+HO2                          2.00E+13   0.00     50930.0   
!R183
 C4H81+HO2<=>C4H7+H2O2                        1.00E+12   0.00     14340.0   
!R184
 C4H81+CH3<=>C4H7+CH4                         4.50E-01   3.65      7153.0   
!R185
 pC4H9+H<=>C2H5+C2H5                          3.70E+24  -2.92      12505.0  
!R186
 pC4H9+H<=>C4H81+H2                           1.80E+12   0.00         0.0   
!R187
 pC4H9+O<=>nC3H7+CH2O                         9.60E+13   0.00         0.0   
!R188
 pC4H9+OH<=>C4H81+H2O                         2.40E+13   0.00         0.0   
!R189
 pC4H9+O2<=>C4H81+HO2                         2.70E+11   0.00         0.0   
!R190
 pC4H9+HO2<=>nC3H7+OH+CH2O                    2.40E+13   0.00         0.0  
!R191
 pC4H9+CH3<=>C4H81+CH4                        1.10E+13   0.00         0.0   
!R192
 C5H9=>aC3H5+C2H4                                2.500e+13    0.000  30019.12     
!R193
 C5H9=>C2H3+C3H6                                 2.500e+13    0.000  30019.12         
!R194
 C5H10+H(+M)<=>PXC5H11(+M)                    1.33E+13    0.00     3260.7   
 LOW  / 6.26E+38   -6.66     7000.0   /
 TROE / 1.000  1000.0  1310.0 48097.0 /
 H2/2/ H2O/6/ CH4/2/ CO/1.5/ CO2/2/ C2H6/3/
!R195
 C5H10+H<=>C2H4+nC3H7                         8.00E+21   -2.39    11180.0   
!R196
 C5H10+H<=>C3H6+C2H5                          1.60E+22   -2.39    11180.0   
!R197
 C2H4+nC3H7<=>PXC5H11                         3.00E+11    0.00     7300.0 
!R198
 C6H12+H(+M)<=>PXC6H13(+M)                    1.33E+13    0.00   3260.7 
 LOW  / 6.26E+38  -6.66   7000.0      /
 TROE / 1.000  1000.0  1310.0 48097.0 /
 H2/2/ H2O/6/ CH4/2/ CO/1.5/ CO2/2/ C2H6/3/
!R199
 C6H12+H<=>C2H4+pC4H9                         8.00E+21   -2.39  11180.0  
!R200
 C6H12+H<=>C3H6+nC3H7                         1.60E+22   -2.39  11180.0  
!R201
 C2H4+pC4H9<=>PXC6H13                         3.00E+11    0.00   7300.0  
!R202
 C7H14+H(+M)<=>PXC7H15(+M)                    1.33E+13    0.00   3260.7  
 LOW  / 6.26E+38  -6.66   7000.0      /
 TROE / 1.000  1000.0  1310.0 48097.0 /
 H2/2/ H2O/6/ CH4/2/ CO/1.5/ CO2/2/ C2H6/3/
!R203
 C7H14+H<=>C2H4+PXC5H11                       8.00E+21   -2.39  11180.0  
!R204
 C7H14+H<=>C3H6+pC4H9                         1.60E+22   -2.39  11180.0  
!R205
 C2H4+PXC5H11<=>PXC7H15                       3.00E+11    0.00   7300.0  
!R206
 C8H16+H(+M)<=>PXC8H17(+M)                    1.33E+13    0.00   3260.7   
 LOW  / 6.26E+38  -6.66   7000.0      /
 TROE / 1.000  1000.0  1310.0 48097.0 /
 H2/2/ H2O/6/ CH4/2/ CO/1.5/ CO2/2/ C2H6/3/
!R207
 C8H16+H<=>C2H4+PXC6H13                       8.00E+21   -2.39  11180.0  
!R208
 C8H16+H<=>C3H6+PXC5H11                       1.60E+22   -2.39  11180.0  
!R209
 C2H4+PXC6H13<=>PXC8H17                       3.00E+11    0.00   7300.0  
!R210
 C9H18+H(+M)<=>PXC9H19(+M)                    1.33E+13    0.00   3260.7
 LOW  / 6.26E+38  -6.66   7000.0      /
 TROE / 1.000  1000.0  1310.0 48097.0 /
 H2/2/ H2O/6/ CH4/2/ CO/1.5/ CO2/2/ C2H6/3/
!R211
 C9H18+H<=>C2H4+PXC7H15                       8.00E+21   -2.39  11180.0  
!R212
 C9H18+H<=>C3H6+PXC6H13                       1.60E+22   -2.39  11180.0  
!R213
 C2H4+PXC7H15<=>PXC9H19                       3.00E+11    0.00   7300.0  
!R214
 C10H20+H(+M)<=>PXC10H21(+M)                  1.33E+13    0.00   3260.7  
 LOW  / 6.26E+38  -6.66   7000.0      /
 TROE / 1.000  1000.0  1310.0 48097.0 /
 H2/2/ H2O/6/ CH4/2/ CO/1.5/ CO2/2/ C2H6/3/
!R215
 C10H20+H<=>C2H4+PXC8H17                      8.00E+21   -2.39  11180.0  
!R216
 C10H20+H<=>C3H6+PXC7H15                      1.60E+22   -2.39  11180.0 
!R217
 C2H4+PXC8H17<=>PXC10H21                      3.00E+11    0.00   7300.0  
!R218
 C12H24<=>PXC7H15+C5H9                        3.500e+16   0.000  70936.90
!R219
 C2H4+PXC10H21<=>PXC12H25                     3.00E+11    0.00   7300.0  
!R220
 PXC12H25<=>S3XC12H25		                3.67E+12   -0.60  14400.0
!R221
 C3H6+PXC9H19<=>SXC12H25                      3.00E+11    0.00   7300.0  
!R222
 C4H81+PXC8H17<=>SXC12H25                     3.00E+11    0.00   7300.0  
!R223
 C5H10+PXC7H15<=>S3XC12H25                    3.00E+11    0.00   7300.0  
!R224
 C10H20+C2H5<=>S3XC12H25                      3.00E+11    0.00   7300.0  
!R225
 C6H12+PXC6H13<=>S3XC12H25                    3.00E+11    0.00   7300.0  
!R226
 C9H18+nC3H7<=>S3XC12H25                      3.00E+11    0.00   7300.0  
!R227
 C7H14+PXC5H11<=>S3XC12H25                    3.00E+11    0.00   7300.0  
!R228
 C8H16+pC4H9<=>S3XC12H25                      3.00E+11    0.00   7300.0  
!R229
 PXC10H21+C2H5<=>NC12H26                      1.88E+14   -0.50      0.0  
!R230
 PXC9H19+nC3H7<=>NC12H26                      1.88E+14   -0.50      0.0  
!R231
 PXC8H17+pC4H9<=>NC12H26                      1.88E+14   -0.50      0.0  
!R232
 PXC7H15+PXC5H11<=>NC12H26                    1.88E+14   -0.50      0.0  
!R233
 PXC6H13+PXC6H13<=>NC12H26                    1.88E+14   -0.50      0.0  
!R234
 NC12H26+H<=>PXC12H25+H2                      1.30E+06    2.54   6756.0  
!R235
 NC12H26+H<=>SXC12H25+H2                      2.60E+06    2.40   4471.0  
!R236
 NC12H26+H<=>S3XC12H25+H2                     3.90E+06    2.40   4471.0  
!R237
 NC12H26+O<=>PXC12H25+OH                      1.90E+05    2.68   3716.0  
!R238
 NC12H26+O<=>SXC12H25+OH                      9.52E+04    2.71   2106.0  
!R239
 NC12H26+O<=>S3XC12H25+OH                     14.28E+04    2.71   2106.0  
!R240
 NC12H26+OH<=>PXC12H25+H2O                    3.40E+03    2.66    527.0  
!R241
 NC12H26+OH<=>SXC12H25+H2O                    7.40E+04    2.39    393.0  
!R242
 NC12H26+OH<=>S3XC12H25+H2O                   10.10E+04    2.39    393.0  
!R243
 NC12H26+O2<=>PXC12H25+HO2                    4.00E+13    0.00  50930.0  
!R244
 NC12H26+O2<=>SXC12H25+HO2                    8.00E+13    0.00  47590.0  
!R245
 NC12H26+O2<=>S3XC12H25+HO2                   12.00E+13    0.00  47590.0 
!R246
 NC12H26+HO2<=>PXC12H25+H2O2                  6.76E+04    2.55  16490.0  
!R247
 NC12H26+HO2<=>SXC12H25+H2O2                  8.90E+04    2.60  13910.0  
!R248
 NC12H26+HO2<=>S3XC12H25+H2O2                 8.850E+04    2.60  13910.0  
!R249
 NC12H26+CH3<=>PXC12H25+CH4                   1.81E+00    3.65   7153.0  
!R250
 NC12H26+CH3<=>SXC12H25+CH4                   6.00E+00    3.46   5480.0  
!R251
 NC12H26+CH3<=>S3XC12H25+CH4                  9.00E+00    3.46   5480.0  
!R252
PXC12H25+O2=>C12H25O2                         5.000e+13    0.000      0.00
!R253