ELEMENTS
O       H       C       N       HE  
END
SPECIES
N2              H2              H               O               O2              
OH              H2O             HO2             CO              CO2             
CH              CH2             CH2(S)          CH3             CH4             
HCO             CH2O            CH2OH           CH3O            CH3OH           
HE              
END
TRANS ALL
N2                 1    97.530     3.621     0.000     1.760     4.000          
H2                 1    38.000     2.920     0.000     0.790   280.000          
H                  0   145.000     2.050     0.000     0.000     0.000          
O                  0    80.000     2.750     0.000     0.000     0.000          
O2                 1   107.400     3.458     0.000     1.600     3.800          
OH                 1    80.000     2.750     0.000     0.000     0.000          
H2O                2   572.400     2.605     1.844     0.000     4.000          
HO2                2   107.400     3.458     0.000     0.000     1.000          
CO                 1    98.100     3.650     0.000     1.950     1.800          
CO2                1   244.000     3.763     0.000     2.650     2.100          
CH                 1    80.000     2.750     0.000     0.000     0.000          
CH2                1   144.000     3.800     0.000     0.000     0.000          
CH2(S)             1   144.000     3.800     0.000     0.000     0.000          
CH3                1   144.000     3.800     0.000     0.000     0.000          
CH4                2   141.400     3.746     0.000     2.600    13.000          
HCO                2   498.000     3.590     0.000     0.000     0.000          
CH2O               2   498.000     3.590     0.000     0.000     2.000          
CH2OH              2   417.000     3.690     1.700     0.000     2.000          
CH3O               2   417.000     3.690     1.700     0.000     2.000          
CH3OH              2   481.800     3.626     0.000     0.000     1.000          
HE                 0    10.200     2.576     0.000     0.000     0.000          
END
REACTIONS
H+O2<=>O+OH                                     9.841E+13    0.000    15310.00
O+H2<=>H+OH                                     3.848E+12    0.000     7950.00
  DUPLICATE
O+H2<=>H+OH                                     6.687E+14    0.000    19180.00
  DUPLICATE
OH+H2<=>H+H2O                                   2.256E+08    1.510     3437.00
2OH<=>O+H2O                                     3.161E+04    2.420    -1928.00
H2+M<=>2H+M                                     4.580E+19   -1.400   104390.00
N2/  1.01/H2/  2.55/H2O/ 12.02/CO/  1.95/CO2/  3.83/CH4/  2.00/
CH2O/  2.50/CH3OH/  3.00/HE/  0.00/
H2+HE<=>2H+HE                                   5.840E+18   -1.100   104390.00
2O+M<=>O2+M                                     6.160E+15   -0.500        0.00
H2/  2.50/H2O/ 12.00/CO/  1.90/CO2/  3.80/CH4/  2.00/CH2O/  2.50/
CH3OH/  3.00/HE/  0.00/
2O+HE<=>O2+HE                                   1.890E+13    0.000    -1788.00
O+H+M<=>OH+M                                    4.710E+18   -1.000        0.00
N2/  1.32/H2/  2.50/H2O/ 15.80/CO/  2.52/CO2/  5.01/CH4/  2.00/
CH2O/  2.50/CH3OH/  3.00/HE/  0.75/
H2O+M<=>H+OH+M                                  6.060E+27   -3.322   120800.00
N2/  2.46/H2/  3.77/O2/  1.50/H2O/  0.00/CO/  2.40/CO2/  4.67/
CH4/  2.00/CH2O/  2.50/CH3OH/  3.00/HE/  1.33/
2H2O<=>H+OH+H2O                                 7.528E+25   -2.440   120200.00
H+O2(+M)<=>HO2(+M)                              4.565E+12    0.440        0.00
    LOW  / 0.63700E+21 -0.17200E+01  0.52500E+03 /
    TROE / 0.50000E+00  0.30000E+02  0.90000E+05  0.90000E+05 /
N2/  0.96/H2/  1.87/O2/  0.75/H2O/ 15.81/CO/  1.90/CO2/  3.45/
CH4/  2.00/CH2O/  2.50/CH3OH/  3.00/HE/  0.71/
HO2+H<=>H2+O2                                   2.945E+06    2.087    -1455.00
HO2+H<=>2OH                                     5.888E+13    0.000      300.00
HO2+H<=>O+H2O                                   1.632E+12    0.000        0.00
HO2+O<=>OH+O2                                   1.609E+13    0.000     -445.00
HO2+OH<=>H2O+O2                                 7.347E+12    0.000    -1093.00
  DUPLICATE
HO2+OH<=>H2O+O2                                 4.534E+14    0.000    10930.00
  DUPLICATE
CO+O(+M)<=>CO2(+M)                              1.880E+11    0.000     2430.00
    LOW  / 0.14000E+22 -0.21000E+01  0.55000E+04 /
H2/  2.50/H2O/ 12.00/CO/  1.90/CO2/  3.80/CH4/  2.00/CH2O/  2.50/
CH3OH/  3.00/
CO+O2<=>O+CO2                                   1.533E+12    0.000    47700.00
CO+OH<=>H+CO2                                   6.187E+04    2.053     -356.00
  DUPLICATE
CO+OH<=>H+CO2                                   5.017E+12   -0.664      332.00
  DUPLICATE
CO+HO2<=>OH+CO2                                 1.570E+05    2.180    17944.00
HCO+M<=>H+CO+M                                  4.800E+17   -1.200    17734.00
N2/  1.31/H2/  1.31/O2/  1.32/H2O/ 15.31/CO/  2.04/CO2/  2.00/
CH4/  2.60/CH2O/  3.29/CH3OH/  3.00/HE/  1.31/
HCO+H<=>H2+CO                                   8.482E+13    0.000        0.00
HCO+O<=>OH+CO                                   3.010E+13    0.000        0.00
HCO+O<=>H+CO2                                   3.001E+13    0.000        0.00
HCO+OH<=>H2O+CO                                 1.199E+14    0.000        0.00
HCO+O2<=>HO2+CO                                 7.562E+10    0.521     -521.00
CH+O<=>H+CO                                     5.700E+13    0.000        0.00
CH+OH<=>H+HCO                                   3.000E+13    0.000        0.00
CH+H2<=>H+CH2                                   1.612E+14    0.000     3320.00
CH+H2(+M)<=>CH3(+M)                             5.130E+13    0.150        0.00
    LOW  / 0.24300E+23 -0.16000E+01  0.00000E+00 /
    TROE / 0.51400E+00  0.15200E+03  0.22850E+05  0.10350E+05 /
H2O/  6.00/CO/  1.50/CO2/  2.00/CH4/  2.00/CH2O/  2.50/CH3OH/  3.00/
HE/  0.70/
CH+H2O<=>H+CH2O                                 3.430E+12    0.000     -884.00
CH+O2<=>O+HCO                                   1.840E+08    1.430     1200.00
CH+O2<=>CO2+H                                   2.781E+08    1.430     1200.00
CH+O2<=>CO+OH                                   1.840E+08    1.430     1200.00
CH+O2=>O+H+CO                                   2.789E+08    1.430     1200.00
CH+CO2<=>HCO+CO                                 6.380E+07    1.510     -715.00
CH2+H(+M)<=>CH3(+M)                             2.130E+13    0.320        0.00
    LOW  / 0.13900E+35 -0.50400E+01  0.74000E+04 /
    TROE / 0.40500E+00  0.25800E+03  0.28110E+04  0.99080E+04 /
H2O/  6.00/CO/  1.50/CO2/  2.00/CH4/  2.00/CH2O/  2.50/CH3OH/  3.00/
HE/  0.70/
CH2+O=>2H+CO                                    8.000E+13    0.000        0.00
CH2+OH<=>H+CH2O                                 2.899E+13    0.120     -162.00
CH2+OH<=>CH+H2O                                 8.630E+05    2.020     6776.00
CH2+HO2<=>OH+CH2O                               2.000E+13    0.000        0.00
CH2+H2<=>H+CH3                                  1.265E+06    2.000     7230.00
CH2+O2=>OH+H+CO                                 2.643E+12    0.000     1000.00
CH2+O2=>2H+CO2                                  1.844E+12    0.000     1000.00
CH2+O2<=>O+CH2O                                 1.600E+12    0.000     1000.00
CH2+O2<=>H2+CO2                                 1.836E+12    0.000     1000.00
CH2+O2<=>H2O+CO                                 5.200E+11    0.000     1000.00
CH2(S)+N2<=>CH2+N2                              1.200E+13    0.000      471.00
CH2(S)+HE<=>CH2+HE                              6.620E+12    0.000      755.00
CH2(S)+H<=>CH+H2                                3.000E+13    0.000        0.00
CH2(S)+O=>2H+CO                                 3.000E+13    0.000        0.00
CH2(S)+OH<=>H+CH2O                              3.000E+13    0.000        0.00
CH2(S)+H2<=>CH3+H                               8.291E+13    0.000        0.00
CH2(S)+O2<=>CH2+O2                              3.130E+13    0.000        0.00
CH2(S)+H2O(+M)<=>CH3OH(+M)                      2.940E+12    0.053    -1897.00
    LOW  / 0.16800E+42 -0.71920E+01  0.57770E+04 /
    TROE / 0.99200E+00  0.94300E+03  0.47310E+05  0.47110E+05 /
H2O/  6.00/CO/  1.50/CO2/  2.00/CH4/  2.00/CH2O/  2.50/CH3OH/  3.00/
CH2(S)+H2O<=>CH2+H2O                            1.510E+13    0.000     -431.00
CH2(S)+H2O<=>H2+CH2O                            6.670E+21   -3.134     3300.00
CH2(S)+CO<=>CH2+CO                              9.000E+12    0.000        0.00
CH2(S)+CO2<=>CH2+CO2                            1.330E+13    0.000        0.00
CH2(S)+CO2<=>CO+CH2O                            6.620E+12    0.000        0.00
HCO+H(+M)<=>CH2O(+M)                            1.913E+14   -0.033     -142.00
    LOW  / 0.41900E+35 -0.55330E+01  0.61280E+04 /
    TROE / 0.78200E+00  0.27100E+03  0.27550E+04  0.65700E+04 /
H2O/  6.00/CO/  1.50/CO2/  2.00/CH4/  2.00/CH2O/  2.84/CH3OH/  3.00/
HE/  0.70/
CH2O(+M)<=>H2+CO(+M)                            3.700E+13    0.000    71976.00
    LOW  / 0.44000E+39 -0.61000E+01  0.94000E+05 /
    TROE / 0.93200E+00  0.19700E+03  0.15400E+04  0.10300E+05 /
H2O/  6.00/CO/  1.50/CO2/  2.00/CH4/  2.00/CH2O/  2.50/CH3OH/  3.00/
HE/  0.70/
CH2O+H<=>HCO+H2                                 7.149E+07    1.900     2742.00
CH2O+O<=>OH+HCO                                 4.244E+11    0.570     2762.00
CH2O+OH<=>HCO+H2O                               8.338E+07    1.630    -1055.00
CH2O+O2<=>HO2+HCO                               3.297E+05    2.500    36460.00
CH2O+CH2<=>CH3+HCO                              7.400E-02    4.210     1120.00
CH2O+CH2(S)<=>CH3+HCO                           1.330E+13    0.000     -550.00
CH3+H(+M)<=>CH4(+M)                             1.801E+14    0.000        0.00
    LOW  / 0.79300E+25 -0.21700E+01  0.00000E+00 /
    TROE / 0.12400E+00  0.18010E+04  0.33100E+02  0.90000E+05 /
N2/  0.59/O2/  0.59/H2O/  3.42/CO/  0.89/CO2/  2.00/CH4/  2.00/
CH2O/  2.50/CH3OH/  3.00/HE/  0.42/
CH3+O<=>H+CH2O                                  5.722E+13    0.000        0.00
CH3+O=>H+H2+CO                                  2.384E+13    0.000        0.00
CH3+OH(+M)<=>CH3OH(+M)                          6.210E+13   -0.018      -33.00
    LOW  / 0.72400E+37 -0.60000E+01  0.32260E+04 /
    TROE / 0.18550E+00  0.15600E+03  0.16750E+04  0.45300E+04 /
H2O/  6.00/CO/  1.50/CO2/  2.00/CH4/  2.00/CH2O/  2.50/CH3OH/  3.00/
CH3+OH<=>CH2+H2O                                4.464E+04    2.570     3998.00
CH3+OH<=>CH2(S)+H2O                             7.810E+15   -0.910      546.00
CH3+OH<=>H2+CH2O                                2.735E+09    0.734    -2177.00
CH3+HO2<=>O2+CH4                                1.269E+05    2.228    -3022.00
CH3+HO2<=>OH+CH3O                               8.821E+12    0.000     -590.00
CH3+O2<=>O+CH3O                                 8.104E+12    0.000    28297.00
CH3+O2<=>OH+CH2O                                9.977E+01    2.860     9768.00
CH3+HCO<=>CH4+CO                                5.300E+12    0.000        0.00
CH3+CH2O<=>HCO+CH4                              3.213E+01    3.360     4310.00
CH3O(+M)<=>H+CH2O(+M)                           1.130E+10    1.210    24075.00
    LOW  / 0.60200E+17 -0.54700E+00  0.18024E+05 /
    TROE / 0.34100E+00  0.28000E+02  0.10000E+04  0.23390E+04 /
H2/  2.00/H2O/  6.00/CO/  1.50/CO2/  2.00/CH4/  2.00/CH2O/  2.50/
CH3OH/  3.00/HE/  0.67/
CH3O+H(+M)<=>CH3OH(+M)                          2.440E+11    0.760        0.00
    LOW  / 0.67000E+41 -0.73800E+01  0.91770E+04 /
    TROE / 0.68400E+00  0.37050E+05  0.41490E+05  0.39800E+04 /
H2O/  6.00/CO/  1.50/CO2/  2.00/CH4/  2.00/CH2O/  2.50/CH3OH/  3.00/
CH3O+H<=>H+CH2OH                                1.290E+07    1.820     -703.00
CH3O+H<=>H2+CH2O                                3.790E+13    0.000      596.00
CH3O+H<=>OH+CH3                                 3.880E+14   -0.264      -26.00
CH3O+H<=>CH2(S)+H2O                             1.970E+11    0.414      243.00
CH3O+O<=>OH+CH2O                                3.780E+12    0.000        0.00
CH3O+OH<=>H2O+CH2O                              1.810E+13    0.000        0.00
CH3O+O2<=>HO2+CH2O                              6.320E+10    0.000     2603.00
CH3O+CH3<=>CH4+CH2O                             2.400E+13    0.000        0.00
CH3O+CO<=>CH3+CO2                               6.000E+12    0.000    11000.00
CH2OH(+M)<=>H+CH2O(+M)                          7.370E+10    0.811    39580.00
    LOW  / 0.30100E+14  0.18400E+00  0.17230E+05 /
    TROE / 0.10000E-02  0.50000E+02  0.60000E+03  0.27800E+04 /
H2/  2.00/H2O/  5.97/CO/  1.50/CO2/  2.00/CH4/  2.00/CH2O/  2.50/
CH3OH/  3.00/HE/  0.67/
CH2OH+H(+M)<=>CH3OH(+M)                         6.670E+10    0.960        0.00
    LOW  / 0.13400E+42 -0.73800E+01  0.91770E+04 /
    TROE / 0.68400E+00  0.37050E+05  0.41490E+05  0.39800E+04 /
H2O/  6.00/CO/  1.50/CO2/  2.00/CH4/  2.00/CH2O/  2.50/CH3OH/  3.00/
HE/  0.70/
CH2OH+H<=>H2+CH2O                               2.440E+13    0.000        0.00
CH2OH+H<=>OH+CH3                                2.006E+13    0.198     -241.00
CH2OH+H<=>CH2(S)+H2O                            1.280E+11    0.516      215.00
CH2OH+O<=>OH+CH2O                               9.030E+13    0.000        0.00
CH2OH+OH<=>H2O+CH2O                             2.410E+13    0.000        0.00
CH2OH+O2<=>HO2+CH2O                             7.298E+13    0.000     3736.00
CH2OH+CH3<=>CH4+CH2O                            2.400E+13    0.000        0.00
CH4+H<=>CH3+H2                                  4.781E+05    2.500     9588.00
CH4+O<=>OH+CH3                                  6.786E+08    1.560     8485.00
CH4+OH<=>CH3+H2O                                9.839E+05    2.182     2446.00
CH4+CH2<=>2CH3                                  2.483E+06    2.000     8270.00
CH4+CH2(S)<=>2CH3                               1.867E+13    0.000     -497.00
CH3OH+H<=>CH2OH+H2                              1.550E+06    2.351     5912.00
CH3OH+H<=>CH3O+H2                               5.490E+06    2.147    11134.00
CH3OH+O<=>OH+CH2OH                              2.470E+13    0.000     5306.00
CH3OH+O<=>OH+CH3O                               8.200E+12    0.000     9040.00
CH3OH+OH<=>CH2OH+H2O                            1.420E+05    2.370     -965.20
CH3OH+OH<=>CH3O+H2O                             1.600E+04    2.700       53.30
CH3OH+O2<=>CH2OH+HO2                            3.580E+05    2.270    42760.00
CH3OH+CH<=>CH3+CH2O                             9.040E+18   -1.930        0.00
CH3OH+CH2<=>CH3+CH2OH                           3.200E+01    3.200     7175.00
CH3OH+CH2<=>CH3+CH3O                            1.450E+01    3.100     6940.00
CH3OH+CH2(S)<=>CH3+CH3O                         7.000E+12    0.000     -550.00
CH3OH+CH2(S)<=>CH3+CH2OH                        2.000E+13    0.000     -550.00
CH3OH+CH3<=>CH2OH+CH4                           6.650E+02    3.030     8720.00
CH3OH+CH3<=>CH3O+CH4                            2.150E+04    2.270     8710.00
END
