ELEMENTS
O   H   C   N
END
SPECIES
H2   H    O2   OH   H2O  HO2  H2O2 CH3  CH4  CO   CO2  CH2O C2H2 C2H4 C2H6 NH3 NO   HCN  N2
END
REACTIONS
END
