!Reduced UCF mechanism for oxy-methane CO2
!version 10_7_2018
!contact Prof. subith vasu, subith@ucf.edu
!Manikantachari, Vasu, et al., Journal of Energy Resources Technology 2018, by ASME SEPTEMBER 2018, Vol. 140 / 092202-1
!16 species
!END OF NOTES
ELEMENTS
H O N C
END
SPECIES
  H O2 O H2O OH H2O2 HO2 CO CO2 CH4 CH3 CH3O2H CH3O2 CH3O CH2O HCO
END
THERMO ALL
300.000  1000.000  5000.000
H                 L 6/94H   1    0    0    0G   200.000  6000.00  1000.00      1
 0.25000000E+01 0.00000000E+00 0.00000000E+00 0.00000000E+00 0.00000000E+00    2
 0.25473660E+05-0.44668285E+00 0.25000000E+01 0.00000000E+00 0.00000000E+00    3
 0.00000000E+00 0.00000000E+00 0.25473660E+05-0.44668285E+00 0.26219035E+05    4
O2                RUS 89O   2    0    0    0G   200.000  6000.00  1000.00      1
 3.66096065E+00 6.56365811E-04-1.41149627E-07 2.05797935E-11-1.29913436E-15    2
-1.21597718E+03 3.41536279E+00 3.78245636E+00-2.99673416E-03 9.84730201E-06    3
-9.68129509E-09 3.24372837E-12-1.06394356E+03 3.65767573E+00 0.00000000E+00    4
O                 L 1/90O   1    0    0    0G   200.000  6000.00  1000.00      1
 2.54363697E+00-2.73162486E-05-4.19029520E-09 4.95481845E-12-4.79553694E-16    2
 2.92260120E+04 4.92229457E+00 3.16826710E+00-3.27931884E-03 6.64306396E-06    3
-6.12806624E-09 2.11265971E-12 2.91222592E+04 2.05193346E+00 2.99687009E+04    4
H2O               L 5/89H   2 O  1    0    0G   200.000  6000.00  1000.00      1
 0.26770389E+01 0.29731816E-02-0.77376889E-06 0.94433514E-10-0.42689991E-14    2
-0.29885894E+05 0.68825500E+01 0.41986352E+01-0.20364017E-02 0.65203416E-05    3
-0.54879269E-08 0.17719680E-11-0.30293726E+05-0.84900901E+00-0.29084817E+05    4
OH                IU3/03O   1 H  1    0    0G   200.000  6000.00  1000.00      1
 2.83853033E+00 1.10741289E-03-2.94000209E-07 4.20698729E-11-2.42289890E-15    2
 3.69780808E+03 5.84494652E+00 3.99198424E+00-2.40106655E-03 4.61664033E-06    3
-3.87916306E-09 1.36319502E-12 3.36889836E+03-1.03998477E-01 4.48613328E+03    4
H2O2              T 8/03H   2O   2    0    0G   200.000  6000.00  1000.00      1
 4.57977305E+00 4.05326003E-03-1.29844730E-06 1.98211400E-10-1.13968792E-14    2
-1.80071775E+04 6.64970694E-01 4.31515149E+00-8.47390622E-04 1.76404323E-05    3
-2.26762944E-08 9.08950158E-12-1.77067437E+04 3.27373319E+00-1.63425145E+04    4
HO2               T 1/09H   1O   2    0    0G   200.000  5000.00  1000.00      1
 4.17228741E+00 1.88117627E-03-3.46277286E-07 1.94657549E-11 1.76256905E-16    2
 3.10206839E+01 2.95767672E+00 4.30179807E+00-4.74912097E-03 2.11582905E-05    3
-2.42763914E-08 9.29225225E-12 2.64018485E+02 3.71666220E+00 1.47886045E+03    4
CO                RUS 79C   1O   1    0    0G   200.000  6000.00  1000.00      1
 0.30484859E+01 0.13517281E-02-0.48579405E-06 0.78853644E-10-0.46980746E-14    2
-0.14266117E+05 0.60170977E+01 0.35795335E+01-0.61035369E-03 0.10168143E-05    3
 0.90700586E-09-0.90442449E-12-0.14344086E+05 0.35084093E+01-0.13293628E+05    4
CO2               L 7/88C   1O   2    0    0G   200.000  6000.00  1000.00      1
 0.46365111E+01 0.27414569E-02-0.99589759E-06 0.16038666E-09-0.91619857E-14    2
-0.49024904E+05-0.19348955E+01 0.23568130E+01 0.89841299E-02-0.71220632E-05    3
 0.24573008E-08-0.14288548E-12-0.48371971E+05 0.99009035E+01-0.47328105E+05    4
CH4               G 8/99C  1 H  4    0    0 G   200.000  6000.00  1000.00      1
 1.65326226E+00 1.00263099E-02-3.31661238E-06 5.36483138E-10-3.14696758E-14    2
-1.00095936E+04 9.90506283E+00 5.14911468E+00-1.36622009E-02 4.91453921E-05    3
-4.84246767E-08 1.66603441E-11-1.02465983E+04-4.63848842E+00-8.97226656E+03    4
CH3               IU0702C  1 H  3    0    0 G   200.000  6000.00  1000.00      1
 0.29781206E+01 0.57978520E-02-0.19755800E-05 0.30729790E-09-0.17917416E-13    2
 0.16509513E+05 0.47224799E+01 0.36571797E+01 0.21265979E-02 0.54583883E-05    3
-0.66181003E-08 0.24657074E-11 0.16422716E+05 0.16735354E+01 0.17643935E+05    4
CH3O2H            A 7/05C  1 H  4 O  2    0 G   200.000  6000.00  1000.00      1
 7.76538058E+00 8.61499712E-03-2.98006935E-06 4.68638071E-10-2.75339255E-14    2
-1.82979984E+04-1.43992663E+01 2.90540897E+00 1.74994735E-02 5.28243630E-06    3
-2.52827275E-08 1.34368212E-11-1.68894632E+04 1.13741987E+01-1.52423685E+04    4
CH3O2                   H   3C   1O   2    0G   300.000  5000.000 1374.000     1
 6.47970487E+00 7.44401080E-03-2.52348555E-06 3.89577296E-10-2.25182399E-14    2
-1.56285441E+03-8.19477074E+00 1.97339205E+00 1.53542340E-02-6.37314891E-06    3
 3.19930565E-10 2.82193915E-13 2.54278835E+02 1.69194215E+01                   4
CH3O              IU1/03C  1 H  3 O  1    0 G   200.000  6000.00  1000.00      1
 4.75779238E+00 7.44142474E-03-2.69705176E-06 4.38090504E-10-2.63537098E-14    2
 3.78111940E+02-1.96680028E+00 3.71180502E+00-2.80463306E-03 3.76550971E-05    3
-4.73072089E-08 1.86588420E-11 1.29569760E+03 6.57240864E+00 2.52571660E+03    4
CH2O              T 5/11H   2C   1O   1    0G   200.000  6000.00  1000.00      1
 3.16952665E+00 6.19320560E-03-2.25056366E-06 3.65975660E-10-2.20149458E-14    2
-1.45486831E+04 6.04207898E+00 4.79372312E+00-9.90833322E-03 3.73219990E-05    3
-3.79285237E-08 1.31772641E-11-1.43791953E+04 6.02798058E-01-1.31293365E+04    4
HCO               T 5/03C  1 H  1 O  1    0 G   200.000  6000.00  1000.00      1
 3.92001542E+00 2.52279324E-03-6.71004164E-07 1.05615948E-10-7.43798261E-15    2
 3.65342928E+03 3.58077056E+00 4.23754610E+00-3.32075257E-03 1.40030264E-05    3
-1.34239995E-08 4.37416208E-12 3.87241185E+03 3.30834869E+00 5.08749163E+03    4
END
TRANS ALL
H                  0   145.000     2.050     0.000     0.000     0.000          
O2                 1   107.400     3.458     0.000     1.600     3.800          
O                  0    80.000     2.750     0.000     0.000     0.000          
H2O                2   572.400     2.605     1.844     0.000     4.000          
OH                 1    80.000     2.750     0.000     0.000     0.000          
H2O2               2   107.400     3.458     0.000     0.000     3.800          
HO2                2   107.400     3.458     0.000     0.000     1.000          
CO                 1    98.100     3.650     0.000     1.950     1.800          
CO2                1   244.000     3.763     0.000     2.650     2.100          
CH4                2   141.400     3.746     0.000     2.600    13.000          
CH3                1   144.000     3.800     0.000     0.000     0.000          
CH3O2H             2   481.800     3.626     0.000     0.000     1.000          
CH3O2              2   481.800     3.626     0.000     0.000     1.000          
CH3O               2   417.000     3.690     1.700     0.000     2.000          
CH2O               2   498.000     3.590     0.000     0.000     2.000          
HCO                2   498.000     3.590     0.000     0.000     0.000          
END
REACTIONS

  O+O+M<=>O2+M +6.1650000E+015 -5.0000000E-001 +0.0000000E+000
  H2O/ 12.000/  CO/ 1.900/ 
  CO2/ 3.800/  CH4/ 2.000/    
  
O2+H<=>O+OH +1.0400000E+014 +0.0000000E+000 +1.5286000E+004

H+OH+M<=>H2O+M +3.5000000E+022 -2.0000000E+000 +0.0000000E+000
  H2O/ 3.650/ CH4/ 2.000/  
  
O+H2O<=>OH+OH +6.7000000E+007 +1.7040000E+000 +1.4986800E+004

O+H+M<=>OH+M +4.7140000E+018 -1.0000000E+000 +0.0000000E+000
  H2O/ 12.000/ CO/ 1.500/ 
  CO2/ 2.000/  CH4/ 2.000/              
   
  
H2O2(+M)<=>OH+OH(+M) +2.0000000E+012 +9.0000000E-001 +4.8749000E+004
LOW/ +2.4900000E+024 -2.3000000E+000 +4.8749000E+004/ 
TROE/ +4.3000000E-001 +1.0000000E-030 +1.0000000E+030/ 
  H2O/ 7.650/ CO2/ 1.600/ O2/ 1.200/ 
  H2O2/ 7.700/ CO/ 2.800/ 
  
H2O2+H<=>H2O+OH +2.4100000E+013 +0.0000000E+000 +3.9700000E+003
  
H2O2+O<=>OH+HO2 +9.5500000E+006 +2.0000000E+000 +3.9700000E+003

H2O2+OH<=>H2O+HO2 +1.7400000E+012 +0.0000000E+000 +3.1800000E+002
DUP
H2O2+OH<=>H2O+HO2 +7.5900000E+013 +0.0000000E+000 +7.2690000E+003
DUP

HO2+H<=>OH+OH +7.0790000E+013 +0.0000000E+000 +2.9500000E+002
  
HO2+O<=>OH+O2 +3.2500000E+013 +0.0000000E+000 +0.0000000E+000

OH+HO2<=>H2O+O2 +7.0000000E+012 +0.0000000E+000 -1.0929600E+003
DUP
OH+HO2<=>H2O+O2 +4.5000000E+014 +0.0000000E+000 +1.0929600E+004
DUP
HO2+HO2<=>H2O2+O2 +1.0000000E+014 +0.0000000E+000 +1.1040883E+004
DUP
HO2+HO2<=>H2O2+O2 +1.9000000E+011 +0.0000000E+000 -1.4089248E+003
DUP

H+O2(+M)<=>HO2(+M) +4.6500000E+012 +4.4000000E-001 +0.0000000E+000
LOW/ +1.7370000E+019 -1.2300000E+000 +0.0000000E+000/ 
TROE/ +6.7000000E-001 +1.0000000E-030 +1.0000000E+030 +1.0000000E+030/ 
  CO/ 1.900/ CO2/ 3.800/ H2O/ 10.000/ 
  CH4/ 2.000/ 
  
CO+O(+M)<=>CO2(+M) +1.3620000E+010 +0.0000000E+000 +2.3840000E+003
LOW/ +1.1730000E+024 -2.7900000E+000 +4.1910000E+003/ 
  H2O/ 12.000/ CO/ 1.750/ CO2/ 3.600/                       
  
CO+OH<=>CO2+H +7.0150000E+004 +2.0530000E+000 -3.5570000E+002
DUP
CO+OH<=>CO2+H +5.7570000E+012 -6.6400000E-001 +3.3180000E+002
DUP

CO+HO2<=>CO2+OH +1.5700000E+005 +2.1800000E+000 +1.7940000E+004

CO+O2<=>CO2+O +1.1190000E+012 +0.0000000E+000 +4.7700000E+004
     

CH3+H(+M)<=>CH4(+M) +1.2700000E+016 -6.3000000E-001 +3.8300000E+002
LOW/ +2.4770000E+033 -4.7600000E+000 +2.4400000E+003/ 
TROE/ +7.8300000E-001 +7.4000000E+001 +2.9410000E+003 +6.9640000E+003/ 
  H2O/ 6.000/ CO/ 1.500/ CO2/ 2.000/ 
  CH4/ 2.000/                         
  
CH4+O<=>CH3+OH +1.0200000E+009 +1.5000000E+000 +8.6000000E+003

CH4+OH<=>CH3+H2O +5.8300000E+004 +2.6000000E+000 +2.1900000E+003

CH4+HO2<=>CH3+H2O2 +1.1300000E+001 +3.7400000E+000 +2.1010000E+004

CH4+CH3O2<=>CH3+CH3O2H +9.6000000E-001 +3.7700000E+000 +1.7810000E+004

CH3+HO2<=>CH4+O2 +1.1600000E+005 +2.2300000E+000 -3.0220000E+003
   
CH3+O2(+M)<=>CH3O2(+M) +7.8120000E+009 +9.0000000E-001 +0.0000000E+000
LOW/ +6.8500000E+024 -3.0000000E+000 +0.0000000E+000/ 
TROE/ +6.0000000E-001 +1.0000000E+003 +7.0000000E+001 +1.7000000E+003/ 

CH3+O2<=>CH3O+O +7.5460000E+012 +0.0000000E+000 +2.8320000E+004

CH3+O2<=>CH2O+OH +2.6410000E+000 +3.2830000E+000 +8.1050000E+003

CH3+O<=>CH2O+H +5.5400000E+013 +5.0000000E-002 -1.3600000E+002

CH3+OH<=>H+CH3O +5.2420000E+010 +5.5100000E-001 +1.3070000E+004 

CH3+HO2<=>CH3O+OH +1.0000000E+012 +2.6900000E-001 -6.8750000E+002

CH3O2+O<=>CH3O+O2 +3.6000000E+013 +0.0000000E+000 +0.0000000E+000

CH3O2+H<=>CH3O+OH +9.6000000E+013 +0.0000000E+000 +0.0000000E+000
  
CH3O2+HO2<=>CH3O2H+O2 +2.4700000E+011 +0.0000000E+000 -1.5700000E+003

CH3O2+H2O2<=>CH3O2H+HO2 +2.4100000E+012 +0.0000000E+000 +9.9360000E+003

CH3O2+CH3<=>CH3O+CH3O +5.0800000E+012 +0.0000000E+000 -1.4110000E+003
 
CH3O2+CH3O2=>O2+CH3O+CH3O +1.4000000E+016 -1.6100000E+000 +1.8600000E+003
  
CH3O2H<=>CH3O+OH +6.3100000E+014 +0.0000000E+000 +4.2300000E+004
    
CH3O+O2<=>CH2O+HO2 +4.3800000E-019 +9.5000000E+000 -5.5010000E+003

CH3O+HO2<=>CH2O+H2O2 +3.0100000E+011 +0.0000000E+000 +0.0000000E+000

CH3O+CH3<=>CH2O+CH4 +1.2000000E+013 +0.0000000E+000 +0.0000000E+000
    
HCO+H(+M)<=>CH2O(+M) +1.0900000E+012 +4.8000000E-001 -2.6000000E+002
LOW/ +1.3500000E+024 -2.5700000E+000 +1.4250000E+003/ 
TROE/ +7.8240000E-001 +2.7100000E+002 +2.7550000E+003 +6.5700000E+003/ 
   H2O/ 6.000/ CO/ 1.500/ CO2/ 2.000/ 
CH4/ 2.000/                         
    
CH2O+O2<=>HCO+HO2 +8.0700000E+015 +0.0000000E+000 +5.3420000E+004

CH2O+O<=>HCO+OH +6.2600000E+009 +1.1500000E+000 +2.2600000E+003

CH2O+OH<=>HCO+H2O +7.8200000E+007 +1.6300000E+000 -1.0550000E+003

CH2O+HO2<=>HCO+H2O2 +1.8800000E+004 +2.7000000E+000 +1.1520000E+004

CH2O+CH3<=>HCO+CH4 +3.8300000E+001 +3.3600000E+000 +4.3120000E+003
    
CH2O+CH3O2<=>HCO+CH3O2H +1.9900000E+012 +0.0000000E+000 +1.1660000E+004

HCO+M<=>H+CO+M +5.7000000E+011 +6.6000000E-001 +1.4870000E+004
H2O/ 6.000/ CO/ 1.500/ CO2/ 2.000/ CH4/ 2.000/              
  
HCO+O2<=>CO+HO2 +7.5800000E+012 +0.0000000E+000 +4.1000000E+002

HCO+O<=>CO+OH +3.0200000E+013 +0.0000000E+000 +0.0000000E+000
  
HCO+OH<=>CO+H2O +3.0110000E+013 +0.0000000E+000 +0.0000000E+000

HCO+CH3<=>CH4+CO +2.6500000E+013 +0.0000000E+000 +0.0000000E+000

HCO+HCO<=>CH2O+CO +1.8000000E+013 +0.0000000E+000 +0.0000000E+000

HCO+O<=>CO2+H +3.0000000E+013 +0.0000000E+000 +0.0000000E+000

HCO+HO2=>CO2+H+OH +3.0000000E+013 +0.0000000E+000 +0.0000000E+000
     
CH3O(+M)<=>CH2O+H(+M) +6.8000000E+013 +0.0000000E+000 +2.6170000E+004
LOW/ +1.8670000E+025 -3.0000000E+000 +2.4307000E+004/ 
TROE/ +9.0000000E-001 +2.5000000E+003 +1.3000000E+003 +1.0000000E+099/ 
  H2O/ 6.000/ CO/ 1.500/ CO2/ 2.000/ CH4/ 2.000/              
  

END
