ELEMENTS
O N E 
END

SPECIES
O2     N2    E    On     O2n
END

TRANS ALL
O2                 1   107.400     3.458     0.000     1.600     3.800          
N2                 1    97.530     3.621     0.000     1.760     4.000          
On                 0    80.000     2.750     0.000     0.000     0.000          
O2n                1   107.400     3.458     0.000     1.600     3.800          
E                  0   850.        425.      0.000     0.000     1.000          
END

REACTIONS
END
