ELEMENTS
N  O  H  C  
END
SPECIES
N2          O           H2          H           
OH          H2O         O2          HO2         H2O2        
CH          HCO         CH2         CO2         CO          
CH2O        CH2GSG      CH3         CH3O        CH4         
CH3OH       C2H6        C2H5        CH2CO       HOCHO       
CH3O2       CH3O2H      C2H2        HCCO        C2H3        
CH2CHO      C3H6        C2H4        C2H5O       CH3CO       
C2H5O2      C3H2        C3H3        C3H4XA      C3H5XA      
NXC3H7      NXC3H7O2    C4H6        C4H7        C4H8X1      
PXC4H9      PXC4H9O2    C5H9        C5H10X1     C5H11X1     
C6H12X1     C7H15X2     NXC7H16     
END
TRANS ALL
N2                 1    97.530     3.621     0.000     1.760     4.000          
O                  0    80.000     2.750     0.000     0.000     0.000          
H2                 1    38.000     2.920     0.000     0.790   280.000          
H                  0   145.000     2.050     0.000     0.000     0.000          
OH                 1    80.000     2.750     0.000     0.000     0.000          
H2O                2   572.400     2.605     1.844     0.000     4.000          
O2                 1   107.400     3.458     0.000     1.600     3.800          
HO2                2   107.400     3.458     0.000     0.000     1.000          
H2O2               2   107.400     3.458     0.000     0.000     3.800          
CH                 1    80.000     2.750     0.000     0.000     0.000          
HCO                2   498.000     3.590     0.000     0.000     0.000          
CH2                1   144.000     3.800     0.000     0.000     0.000          
CO2                1   244.000     3.763     0.000     2.650     2.100          
CO                 1    98.100     3.650     0.000     1.950     1.800          
CH2O               2   498.000     3.590     0.000     0.000     2.000          
CH2GSG             1   144.000     3.800     0.000     0.000     0.000          
CH3                1   144.000     3.800     0.000     0.000     0.000          
CH3O               2   417.000     3.690     1.700     0.000     2.000          
CH4                2   141.400     3.746     0.000     2.600    13.000          
CH3OH              2   481.800     3.626     0.000     0.000     1.000          
C2H6               2   247.500     4.350     0.000     0.000     1.500          
C2H5               2   247.500     4.350     0.000     0.000     1.500          
CH2CO              2   436.000     3.970     0.000     0.000     2.000          
HOCHO              2   436.000     3.970     0.000     0.000     2.000          
CH3O2              2   481.800     3.626     0.000     0.000     1.000          
CH3O2H             2   481.800     3.626     0.000     0.000     1.000          
C2H2               1   265.300     3.721     0.000     0.000     2.500          
HCCO               2   150.000     2.500     0.000     0.000     1.000          
C2H3               2   265.300     3.721     0.000     0.000     1.000          
CH2CHO             2   436.000     3.970     0.000     0.000     2.000          
C3H6               2   307.800     4.140     0.000     0.000     1.000          
C2H4               2   238.400     3.496     0.000     0.000     1.500          
C2H5O              2   470.600     4.410     0.000     0.000     1.500          
CH3CO              2   436.000     3.970     0.000     0.000     2.000          
C2H5O2             2   470.600     4.410     0.000     0.000     1.500          
C3H2               2   209.000     4.100     0.000     0.000     1.000          
C3H3               1   324.800     4.290     0.000     0.000     1.000          
C3H4XA             1   324.800     4.290     0.000     0.000     1.000          
C3H5XA             2   316.000     4.220     0.000     0.000     1.000          
NXC3H7             2   303.400     4.810     0.000     0.000     1.000          
NXC3H7O2           2   481.5       4.997     1.7       0.0       1.000          
C4H6               2   357.000     4.720     0.000     0.000     1.000          
C4H7               2   355.000     4.650     0.000     0.000     1.000          
C4H8X1             2   355.000     4.650     0.000     0.000     1.000          
PXC4H9             2   352.000     5.240     0.000     0.000     1.000          
PXC4H9O2           2   496.000     5.200     0.000     0.000     1.000          
C5H9               2   396.8       5.458     0.0       0.0       1.000          
C5H10X1            2   386.2       5.489     0.4       0.0       1.000          
C5H11X1            2   440.735     5.041     0.000     0.000     0.000          
C6H12X1            2   485.857     5.328     0.000     0.000     0.000          
C7H15X2            2   459.6       6.253     0.0       0.0       1.000          
NXC7H16            2   459.6       6.253     0.0       0.0       1.000          
END
REACTIONS
! Reac    1
O+H2=>H+OH                               5.080e+04    2.670   6292.07
! Reac    2
H+OH=>O+H2                               2.231e+04    2.670   4196.94
! Reac    3
OH+H2=>H+H2O                             2.160e+08    1.510   3429.97
! Reac    4
H+H2O=>OH+H2                             9.352e+08    1.510  18580.07
! Reac    5
H+OH+M=>H2O+M                            2.250e+22   -2.000      0.00
CH2CHO/0.0/ 
CH/0.0/ 
CO/1.9/ 
H2/2.5/ 
PXC4H9/0.0/ 
CH2GSG/0.0/ 
C4H7/0.0/ 
HCCO/0.0/ 
C5H11X1/0.0/ 
H2O/12.0/ 
CO2/3.8/ 
C2H5O/0.0/ 
C3H2/0.0/ 
CH3CO/0.0/ 
C7H15X2/0.0/ 

! Reac    6
O+H2O=>2OH                               2.970e+06    2.020  13400.10
! Reac    7
2OH=>O+H2O                               3.013e+05    2.020  -3849.90
! Reac    8
H+O2(+M)=>HO2(+M)                        1.475e+12    0.600      0.00
CH2CHO/0.0/ 
CH/0.0/ 
CO/1.9/ 
H2/2.5/ 
PXC4H9/0.0/ 
CH2GSG/0.0/ 
C4H7/0.0/ 
HCCO/0.0/ 
C5H11X1/0.0/ 
H2O/12.0/ 
CO2/3.8/ 
C2H5O/0.0/ 
C3H2/0.0/ 
CH3CO/0.0/ 
C7H15X2/0.0/ 
     LOW  / 3.500e+16   -0.410  -1115.92 / 
     TROE/   0.5  0.0  1e+30  1e+100  /
! Reac    9
H+O2=>O+OH                               1.970e+14    0.000  16539.91
! Reac   10
O+OH=>H+O2                               1.555e+13    0.000    424.95
! Reac   11
HO2+OH=>H2O+O2                           2.890e+13    0.000   -500.00
! Reac   12
HO2+O=>OH+O2                             3.250e+13    0.000      0.00
! Reac   13
2HO2=>H2O2+O2                            4.200e+14    0.000  11979.92
     DUPLICATE
! Reac   14
HO2+H=>H2+O2                             1.660e+13    0.000    820.03
! Reac   15
2HO2=>H2O2+O2                            1.300e+11    0.000  -1629.06
     DUPLICATE
! Reac   16
HO2+H=>2OH                               7.080e+13    0.000    299.95
! Reac   17
H2O2+OH=>H2O+HO2                         5.800e+14    0.000   9559.99
! Reac   18
H2O2(+M)=>2OH(+M)                        1.324e+20   -1.538  52449.33
CH2CHO/0.0/ 
CH/0.0/ 
CO/1.9/ 
H2/2.5/ 
PXC4H9/0.0/ 
CH2GSG/0.0/ 
C4H7/0.0/ 
HCCO/0.0/ 
C5H11X1/0.0/ 
H2O/12.0/ 
CO2/3.8/ 
C2H5O/0.0/ 
C3H2/0.0/ 
CH3CO/0.0/ 
C7H15X2/0.0/ 
     LOW  / 3.258e+36   -5.798  54498.33 / 
     TROE/   0.47  100.0  2000.0  1e+15  /
! Reac   19
CH+O2=>HCO+O                             3.300e+13    0.000      0.00
! Reac   20
CH2+O2=>CO2+2H                           3.290e+21   -3.300   2868.07
! Reac   21
CH2+O2=>CO+H2O                           7.280e+19   -2.540   1809.03
! Reac   22
CH2+O=>CO+2H                             5.000e+13    0.000      0.00
! Reac   23
CH2+O2=>CH2O+O                           3.290e+21   -3.300   2868.07
! Reac   24
CH2+H=>CH+H2                             1.000e+18   -1.560      0.00
! Reac   25
CH+H2=>CH2+H                             7.026e+17   -1.560   2989.96
! Reac   26
CH2+OH=>CH+H2O                           1.130e+07    2.000   3000.00
! Reac   27
CH+H2O=>CH2+OH                           3.437e+07    2.000  21140.06
! Reac   28
CH2+O2=>CO2+H2                           1.010e+21   -3.300   1507.89
! Reac   29
CH2GSG+H=>CH+H2                          3.000e+13    0.000      0.00
! Reac   30
CH2GSG+M=>CH2+M                          1.000e+13    0.000      0.00
CH2CHO/0.0/ 
CH/0.0/ 
C3H2/0.0/ 
PXC4H9/0.0/ 
CH2GSG/0.0/ 
C4H7/0.0/ 
HCCO/0.0/ 
C5H11X1/0.0/ 
CH3CO/0.0/ 
C2H5O/0.0/ 
C7H15X2/0.0/ 

! Reac   31
CH2+M=>CH2GSG+M                          7.161e+15   -0.890  11429.97
CH2CHO/0.0/ 
CH/0.0/ 
C3H2/0.0/ 
PXC4H9/0.0/ 
CH2GSG/0.0/ 
C4H7/0.0/ 
HCCO/0.0/ 
C5H11X1/0.0/ 
CH3CO/0.0/ 
C2H5O/0.0/ 
C7H15X2/0.0/ 

! Reac   32
CH2GSG+H2=>CH3+H                         7.000e+13    0.000      0.00
! Reac   33
CH3+H=>CH2GSG+H2                         2.482e+17   -0.890  16130.02
! Reac   34
CH2GSG+O2=>CO+OH+H                       7.000e+13    0.000      0.00
! Reac   35
CH2GSG+OH=>CH2O+H                        3.000e+13    0.000      0.00
! Reac   36
CH3+OH=>CH2O+H2                          2.250e+13    0.000   4299.95
! Reac   37
CH3+OH=>CH2GSG+H2O                       2.650e+13    0.000   2185.95
! Reac   38
CH2GSG+H2O=>CH3+OH                       3.236e+10    0.890   1211.04
! Reac   39
CH3+O=>CH2O+H                            8.000e+13    0.000      0.00
! Reac   40
CH3+HO2=>CH3O+OH                         1.100e+13    0.000      0.00
! Reac   41
CH3+HO2=>CH4+O2                          3.600e+12    0.000      0.00
! Reac   42
OH+CH3(+M)=>CH3OH(+M)                    8.343e+10    0.797  -1788.96
CH2CHO/0.0/ 
CH/0.0/ 
CO/1.5/ 
H2/2.0/ 
PXC4H9/0.0/ 
CH2GSG/0.0/ 
C4H7/0.0/ 
HCCO/0.0/ 
C5H11X1/0.0/ 
H2O/6.0/ 
CO2/2.0/ 
CH4/2.0/ 
C2H6/3.0/ 
C2H5O/0.0/ 
C3H2/0.0/ 
CH3CO/0.0/ 
C7H15X2/0.0/ 
     LOW  / 1.295e+39   -6.553   1941.20 / 
     TROE/   0.414  279.0  5459.0  1e+100  /
! Reac   43
CH3+O2=>CH2O+OH                          7.470e+11    0.000  14250.00
! Reac   44
CH3+H(+M)=>CH4(+M)                       2.138e+15   -0.400      0.00
CH2CHO/0.0/ 
CH/0.0/ 
CO/2.0/ 
H2/2.0/ 
PXC4H9/0.0/ 
CH2GSG/0.0/ 
C4H7/0.0/ 
HCCO/0.0/ 
C5H11X1/0.0/ 
H2O/5.0/ 
CO2/3.0/ 
C2H5O/0.0/ 
C3H2/0.0/ 
CH3CO/0.0/ 
C7H15X2/0.0/ 
     LOW  / 3.310e+30   -4.000   2108.03 / 
     TROE/   0.0  0.0  0.0  40.0  /
! Reac   45
CH3+H=>CH2+H2                            9.000e+13    0.000  15099.90
! Reac   46
CH2+H2=>CH3+H                            1.818e+13    0.000  10400.10
! Reac   47
2CH3(+M)=>C2H6(+M)                       9.214e+16   -1.170    635.76
CH2CHO/0.0/ 
CH/0.0/ 
CO/2.0/ 
H2/2.0/ 
PXC4H9/0.0/ 
CH2GSG/0.0/ 
C4H7/0.0/ 
HCCO/0.0/ 
C5H11X1/0.0/ 
H2O/5.0/ 
CO2/3.0/ 
C2H5O/0.0/ 
C3H2/0.0/ 
CH3CO/0.0/ 
C7H15X2/0.0/ 
     LOW  / 1.135e+36   -5.246   1705.07 / 
     TROE/   0.405  1120.0  69.6  1e+15  /
! Reac   48
2CH3<=>H+C2H5                            6.840e+12    0.100  10599.90
! Reac   49
CH3+OH=>CH2+H2O                          3.000e+06    2.000   2500.00
! Reac   50
CH2+H2O=>CH3+OH                          2.623e+06    2.000  12960.09
! Reac   51
CH4+O=>CH3+OH                            3.150e+12    0.500  10289.91
! Reac   52
CH4+H=>CH3+H2                            1.727e+04    3.000   8223.95
! Reac   53
CH3+H2=>CH4+H                            6.610e+02    3.000   7744.02
! Reac   54
CH4+OH=>CH3+H2O                          1.930e+05    2.400   2106.12
! Reac   55
CH3+H2O=>CH4+OH                          3.199e+04    2.400  16780.11
! Reac   56
CO+CH2(+M)=>CH2CO(+M)                    5.919e+05    1.783  -8782.74
CH2CHO/0.0/ 
CH/0.0/ 
C3H2/0.0/ 
PXC4H9/0.0/ 
CH2GSG/0.0/ 
C4H7/0.0/ 
HCCO/0.0/ 
C5H11X1/0.0/ 
CH3CO/0.0/ 
C2H5O/0.0/ 
C7H15X2/0.0/ 
     LOW  / 7.103e+06    1.783 -20492.59 / 
     TROE/   1.0  1.0  10000000.0  10000000.0  /
! Reac   57
CO+O(+M)=>CO2(+M)                        1.800e+10    0.000   2384.08
CH2CHO/0.0/ 
CH/0.0/ 
CO/1.9/ 
H2/2.5/ 
PXC4H9/0.0/ 
CH2GSG/0.0/ 
C4H7/0.0/ 
HCCO/0.0/ 
C5H11X1/0.0/ 
H2O/12.0/ 
CO2/3.8/ 
C2H5O/0.0/ 
C3H2/0.0/ 
CH3CO/0.0/ 
C7H15X2/0.0/ 
     LOW  / 1.350e+24   -2.788   4190.97 / 
     TROE/   1.0  1.0  10000000.0  10000000.0  /
! Reac   58
CO+OH=>CO2+H                             1.400e+05    1.950  -1347.04
! Reac   59
CO2+H=>CO+OH                             1.568e+07    1.950  20989.96
! Reac   60
HCO+O2=>CO+HO2                           7.580e+12    0.000    409.89
! Reac   61
HCO+O=>CO2+H                             3.000e+13    0.000      0.00
! Reac   62
HCO+OH=>CO+H2O                           1.020e+14    0.000      0.00
! Reac   63
HCO+H=>CO+H2                             7.340e+13    0.000      0.00
! Reac   64
HCO+O=>CO+OH                             3.020e+13    0.000      0.00
! Reac   65
HCO+M=>H+CO+M                            1.860e+17   -1.000  17000.00
CH2CHO/0.0/ 
CH/0.0/ 
CO/1.9/ 
H2/2.5/ 
PXC4H9/0.0/ 
CH2GSG/0.0/ 
C4H7/0.0/ 
HCCO/0.0/ 
C5H11X1/0.0/ 
H2O/6.0/ 
CO2/3.8/ 
C2H5O/0.0/ 
C3H2/0.0/ 
CH3CO/0.0/ 
C7H15X2/0.0/ 

! Reac   66
HCO+CH3=>CH4+CO                          1.210e+14    0.000      0.00
! Reac   67
CH2O+OH=>HCO+H2O                         3.430e+09    1.180   -446.94
! Reac   68
CH2O+O=>HCO+OH                           4.160e+11    0.570   2761.95
! Reac   69
CH2O+H=>HCO+H2                           9.334e+08    1.500   2976.10
! Reac   70
CH2O+CH3=>HCO+CH4                        3.636e-06    5.420    998.09
! Reac   71
2CH3O=>CH3OH+CH2O                        6.030e+13    0.000      0.00
! Reac   72
CH3O+O2=>CH2O+HO2                        5.500e+10    0.000   2424.00
! Reac   73
CH3O(+M)=>CH2O+H(+M)                     5.450e+13    0.000  13500.00
CH2CHO/0.0/ 
CH/0.0/ 
C3H2/0.0/ 
PXC4H9/0.0/ 
CH2GSG/0.0/ 
C4H7/0.0/ 
HCCO/0.0/ 
C5H11X1/0.0/ 
CH3CO/0.0/ 
C2H5O/0.0/ 
C7H15X2/0.0/ 
     LOW  / 2.344e+25   -2.700  30599.90 / 
     TROE/   1.0  1.0  10000000.0  10000000.0  /
! Reac   74
CH3O+H2=>CH3OH+H                         7.467e+12   -0.020   7825.05
! Reac   75
CH3OH+OH=>CH3O+H2O                       1.000e+06    2.100    496.65
! Reac   76
CH2GSG+CO2=>CH2O+CO                      3.000e+12    0.000      0.00
! Reac   77
HOCHO+H=>H2+CO+OH                        6.030e+13   -0.350   2988.05
! Reac   78
HOCHO+OH=>H2O+CO+OH                      1.850e+07    1.510   -962.00
! Reac   79
HOCHO=>HCO+OH                            4.593e+18   -0.460 108299.95
! Reac   80
HCO+OH=>HOCHO                            1.000e+14    0.000      0.00
! Reac   81
HOCHO+H=>H2+CO2+H                        4.240e+06    2.100   4868.07
! Reac   82
HOCHO+OH=>H2O+CO2+H                      2.620e+06    2.060    916.11
! Reac   83
2CH3O2=>O2+2CH3O                         1.400e+16   -1.610   1859.94
! Reac   84
CH3O2+CH3=>2CH3O                         7.000e+12    0.000  -1000.00
! Reac   85
2CH3O2=>CH2O+CH3OH+O2                    3.110e+14   -1.610  -1050.91
! Reac   86
CH3O2+HO2=>CH3O2H+O2                     1.750e+10    0.000  -3275.10
! Reac   87
CH3O2+M=>CH3+O2+M                        4.343e+27   -3.420  30469.89
CH2CHO/0.0/ 
CH/0.0/ 
C3H2/0.0/ 
PXC4H9/0.0/ 
CH2GSG/0.0/ 
C4H7/0.0/ 
HCCO/0.0/ 
C5H11X1/0.0/ 
CH3CO/0.0/ 
C2H5O/0.0/ 
C7H15X2/0.0/ 

! Reac   88
CH3+O2+M=>CH3O2+M                        5.440e+25   -3.300      0.00
CH2CHO/0.0/ 
CH/0.0/ 
C3H2/0.0/ 
PXC4H9/0.0/ 
CH2GSG/0.0/ 
C4H7/0.0/ 
HCCO/0.0/ 
C5H11X1/0.0/ 
CH3CO/0.0/ 
C2H5O/0.0/ 
C7H15X2/0.0/ 

! Reac   89
CH3O2H=>CH3O+OH                          6.310e+14    0.000  42299.95
! Reac   90
C2H2+O=>CH2+CO                           6.120e+06    2.000   1900.10
! Reac   91
C2H2+O=>HCCO+H                           1.430e+07    2.000   1900.10
! Reac   92
C2H3+H=>C2H2+H2                          2.000e+13    0.000   2500.00
! Reac   93
C2H3+O2=>CH2CHO+O                        3.500e+14   -0.610   5260.04
! Reac   94
C2H3+CH3=>C3H6                           4.712e+59  -13.190  29539.91
! Reac   95
C2H3+O2=>C2H2+HO2                        2.120e-06    6.000   9483.99
! Reac   96
C2H3+O2=>CH2O+HCO                        1.700e+29   -5.310   6500.00
! Reac   97
C2H3(+M)=>H+C2H2(+M)                     1.606e+10    1.028  40503.59
CH2CHO/0.0/ 
CH/0.0/ 
CO/2.0/ 
H2/2.0/ 
PXC4H9/0.0/ 
CH2GSG/0.0/ 
C4H7/0.0/ 
HCCO/0.0/ 
C5H11X1/0.0/ 
H2O/5.0/ 
CO2/3.0/ 
C2H5O/0.0/ 
C3H2/0.0/ 
CH3CO/0.0/ 
C7H15X2/0.0/ 
     LOW  / 1.164e+39   -6.821  44491.63 / 
     TROE/   1.0  0.0  675.0  1e+15  /
! Reac   98
C2H4+CH3=>C2H3+CH4                       6.620e+00    3.700   9500.00
! Reac   99
C2H4+O=>CH3+HCO                          1.020e+07    1.880    179.02
! Reac  100
C2H4+OH=>C2H3+H2O                        2.050e+13    0.000   5950.05
! Reac  101
H+C2H4(+M)<=>C2H5(+M)                    1.081e+12    0.450   1821.94
CH2CHO/0.0/ 
CH/0.0/ 
C3H2/0.0/ 
PXC4H9/0.0/ 
CH2GSG/0.0/ 
C4H7/0.0/ 
HCCO/0.0/ 
C5H11X1/0.0/ 
CH3CO/0.0/ 
C2H5O/0.0/ 
C7H15X2/0.0/ 
     LOW  / 1.112e+34   -5.000   4447.90 / 
     TROE/   1.0  0.0  95.0  200.0  /
! Reac  102
C2H4+O=>CH2CHO+H                         3.390e+06    1.880    179.02
! Reac  103
C2H4+H=>C2H3+H2                          8.420e-03    4.620   2582.93
! Reac  104
C2H3+H2=>C2H4+H                          5.723e-01    3.790   3233.03
! Reac  105
H+C2H5=>C2H6                             5.831e+11    0.599  -2913.00
! Reac  106
CH3O2+C2H5=>CH3O+C2H5O                   7.000e+12    0.000  -1000.00
! Reac  107
C2H5+HO2=>C2H5O+OH                       3.200e+13    0.000      0.00
! Reac  108
C2H5+O2=>C2H4+HO2                        1.220e+30   -5.760  10099.90
! Reac  109
C2H6+O=>C2H5+OH                          1.300e+07    2.130   5190.01
! Reac  110
C2H6+OH=>C2H5+H2O                        5.800e+07    1.730   1159.89
! Reac  111
C2H6+H=>C2H5+H2                          5.540e+02    3.500   5167.07
! Reac  112
HCCO+O=>H+2CO                            8.000e+13    0.000      0.00
! Reac  113
HCCO+OH=>2HCO                            1.000e+13    0.000      0.00
! Reac  114
HCCO+O2=>CO2+HCO                         2.400e+11    0.000   -853.97
! Reac  115
HCCO+H=>CH2GSG+CO                        1.100e+14    0.000      0.00
! Reac  116
CH2GSG+CO=>HCCO+H                        2.046e+12    0.890  27830.07
! Reac  117
CH2CO+O=>HCCO+OH                         1.000e+13    0.000   8000.00
! Reac  118
CH2CO+H=>HCCO+H2                         2.000e+14    0.000   8000.00
! Reac  119
HCCO+H2=>CH2CO+H                         6.522e+11    0.000    840.11
! Reac  120
CH2CO+H=>CH3+CO                          1.100e+13    0.000   3400.10
! Reac  121
CH2CO+O=>CH2+CO2                         1.750e+12    0.000   1349.90
! Reac  122
CH2CO+OH=>HCCO+H2O                       1.000e+13    0.000   2000.00
! Reac  123
CH2CHO+O2=>CH2O+CO+OH                    2.000e+13    0.000   4200.05
! Reac  124
CH2CHO=>CH2CO+H                          3.094e+15   -0.260  50820.03
! Reac  125
CH2CO+H=>CH2CHO                          5.000e+13    0.000  12299.95
! Reac  126
CH3CO(+M)=>CH3+CO(+M)                    3.000e+12    0.000  16719.89
CH2CHO/0.0/ 
CH/0.0/ 
C3H2/0.0/ 
PXC4H9/0.0/ 
CH2GSG/0.0/ 
C4H7/0.0/ 
HCCO/0.0/ 
C5H11X1/0.0/ 
CH3CO/0.0/ 
C2H5O/0.0/ 
C7H15X2/0.0/ 
     LOW  / 1.200e+15    0.000  12520.08 / 
     TROE/   1.0  1.0  10000000.0  10000000.0  /
! Reac  127
C2H5O+M=>CH3+CH2O+M                      1.350e+38   -6.960  23799.95
CH2CHO/0.0/ 
CH/0.0/ 
C3H2/0.0/ 
PXC4H9/0.0/ 
CH2GSG/0.0/ 
C4H7/0.0/ 
HCCO/0.0/ 
C5H11X1/0.0/ 
CH3CO/0.0/ 
C2H5O/0.0/ 
C7H15X2/0.0/ 

! Reac  128
C2H5O2=>C2H5+O2                          4.930e+50  -11.500  42250.00
! Reac  129
C2H5+O2=>C2H5O2                          1.090e+48  -11.540  10219.89
! Reac  130
C2H5O2=>C2H4+HO2                         3.370e+55  -13.420  44669.93
! Reac  131
C3H2+O2=>HCCO+CO+H                       5.000e+13    0.000      0.00
! Reac  132
C3H2+OH=>C2H2+HCO                        5.000e+13    0.000      0.00
! Reac  133
C3H3+O2=>CH2CO+HCO                       3.010e+10    0.000   2869.98
! Reac  134
C3H3+HO2=>C3H4XA+O2                      1.175e+11    0.300     38.00
! Reac  135
C3H3+H=>C3H2+H2                          5.000e+13    0.000      0.00
! Reac  136
C3H3+OH=>C3H2+H2O                        1.000e+13    0.000      0.00
! Reac  137
C3H2+H2O=>C3H3+OH                        1.343e+15    0.000  15679.97
! Reac  138
C3H4XA+H=>C3H3+H2                        2.000e+07    2.000   5000.00
! Reac  139
C3H4XA+OH=>C3H3+H2O                      1.000e+07    2.000   1000.00
! Reac  140
C3H4XA+O=>C2H4+CO                        7.800e+12    0.000   1599.90
! Reac  141
C3H5XA+H=>C3H4XA+H2                      1.810e+13    0.000      0.00
! Reac  142
C3H5XA+HO2=>C3H6+O2                      3.332e+10    0.340   -555.93
! Reac  143
C3H5XA+H=>C3H6                           4.887e+56  -12.250  28080.07
! Reac  144
C3H5XA=>C2H2+CH3                         2.397e+48   -9.900  82080.07
! Reac  145
C3H5XA=>C3H4XA+H                         6.663e+15   -0.430  63219.89
! Reac  146
C3H4XA+H=>C3H5XA                         2.400e+11    0.690   3006.93
! Reac  147
C3H5XA+CH2O=>C3H6+HCO                    6.300e+08    1.900  18190.01
! Reac  148
2C3H5XA=>C3H4XA+C3H6                     1.000e+12    0.000      0.00
! Reac  149
C3H6+H=>C2H4+CH3                         4.830e+33   -5.810  18500.00
! Reac  150
C3H6+H=>C3H5XA+H2                        1.730e+05    2.500   2492.11
! Reac  151
C3H6+O=>C2H5+HCO                         1.580e+07    1.760  -1216.06
! Reac  152
C3H6+O=>C3H5XA+OH                        5.240e+11    0.700   5884.08
! Reac  153
C3H6+O=>CH2CO+CH3+H                      2.500e+07    1.760     76.00
! Reac  154
C3H6+OH=>C3H5XA+H2O                      3.120e+06    2.000   -298.04
! Reac  155
NXC3H7+O2=>C3H6+HO2                      3.000e+11    0.000   3000.00
! Reac  156
NXC3H7=>CH3+C2H4                         2.284e+14   -0.550  28400.10
! Reac  157
CH3+C2H4=>NXC3H7                         4.100e+11    0.000   7204.11
! Reac  158
NXC3H7=>H+C3H6                           2.667e+15   -0.640  36820.03
! Reac  159
H+C3H6=>NXC3H7                           1.000e+13    0.000   2500.00
! Reac  160
NXC3H7O2=>NXC3H7+O2                      3.364e+19   -1.320  35760.04
! Reac  161
NXC3H7+O2=>NXC3H7O2                      4.520e+12    0.000      0.00
! Reac  162
C4H6=>2C2H3                              4.027e+19   -1.000  98150.10
! Reac  163
2C2H3=>C4H6                              1.260e+13    0.000      0.00
! Reac  164
C4H6+OH=>CH2O+C3H5XA                     1.000e+12    0.000      0.00
! Reac  165
C4H6+OH=>C2H5+CH2CO                      1.000e+12    0.000      0.00
! Reac  166
C4H6+O=>C2H4+CH2CO                       1.000e+12    0.000      0.00
! Reac  167
C4H6+H=>C2H3+C2H4                        1.000e+13    0.000   4700.05
! Reac  168
C4H6+O=>CH2O+C3H4XA                      1.000e+12    0.000      0.00
! Reac  169
H+C4H7=>C4H8X1                           5.000e+13    0.000      0.00
! Reac  170
C3H5XA+C4H7=>C3H6+C4H6                   6.310e+12    0.000      0.00
! Reac  171
C2H5+C4H7=>C4H6+C2H6                     3.980e+12    0.000      0.00
! Reac  172
C4H7=>C4H6+H                             1.200e+14    0.000  49299.95
! Reac  173
C4H6+H=>C4H7                             4.000e+13    0.000   1299.95
! Reac  174
C4H7+CH3=>C4H6+CH4                       8.000e+12    0.000      0.00
! Reac  175
C4H7+HO2=>C4H8X1+O2                      3.000e+11    0.000      0.00
! Reac  176
C4H7+O2=>C4H6+HO2                        1.000e+09    0.000      0.00
! Reac  177
C4H7=>C2H4+C2H3                          1.000e+11    0.000  37000.00
! Reac  178
H+C4H7=>C4H6+H2                          3.160e+13    0.000      0.00
! Reac  179
C4H8X1+H=>C4H7+H2                        5.000e+13    0.000   3900.10
! Reac  180
C4H8X1+OH=>NXC3H7+CH2O                   1.000e+12    0.000      0.00
! Reac  181
C4H8X1+OH=>CH3CO+C2H6                    5.000e+11    0.000      0.00
! Reac  182
C4H8X1+O=>CH3CO+C2H5                     1.300e+13    0.000    849.90
! Reac  183
C4H8X1+O=>C3H6+CH2O                      7.230e+05    2.340  -1049.95
! Reac  184
C4H8X1+OH=>C4H7+H2O                      2.250e+13    0.000   2217.02
! Reac  185
C4H8X1=>C3H5XA+CH3                       5.000e+15    0.000  71000.00
! Reac  186
C3H5XA+CH3=>C4H8X1                       5.000e+12    0.000      0.00
! Reac  187
PXC4H9=>C4H8X1+H                         1.159e+17   -1.170  38159.89
! Reac  188
C4H8X1+H=>PXC4H9                         1.000e+13    0.000   2900.10
! Reac  189
PXC4H9=>C2H5+C2H4                        7.497e+17   -1.410  29580.07
! Reac  190
PXC4H9O2=>PXC4H9+O2                      6.155e+19   -1.380  35510.04
! Reac  191
PXC4H9+O2=>PXC4H9O2                      4.520e+12    0.000      0.00
! Reac  192
C5H9=>C4H6+CH3                           1.339e+15   -0.520  38320.03
! Reac  193
C5H9=>C3H5XA+C2H4                        2.500e+13    0.000  45000.00
! Reac  194
C5H10X1+OH=>C5H9+H2O                     5.120e+06    2.000   -298.04
! Reac  195
C5H10X1+H=>C5H9+H2                       2.800e+13    0.000   4000.00
! Reac  196
C5H10X1=>C2H5+C3H5XA                     9.173e+20   -1.630  73989.96
! Reac  197
C2H5+C3H5XA=>C5H10X1                     4.000e+12    0.000   -596.08
! Reac  198
C5H10X1+O=>C5H9+OH                       2.540e+05    2.560  -1130.02
! Reac  199
C5H11X1=>C3H6+C2H5                       5.948e+17   -1.268  32384.32
! Reac  200
C5H11X1=>C2H4+NXC3H7                     7.305e+18   -1.767  29919.46
! Reac  201
C5H11X1<=>C5H10X1+H                      1.325e+15   -0.554  37516.73
! Reac  202
C6H12X1=>NXC3H7+C3H5XA                   1.000e+16    0.000  71000.00
! Reac  203
C6H12X1+OH=>C5H11X1+CH2O                 1.000e+11   -0.000  -4000.00
! Reac  204
C7H15X2=>C6H12X1+CH3                     2.617e+14   -0.654  29745.46
! Reac  205
C7H15X2=>PXC4H9+C3H6                     5.313e+17   -1.411  31432.84
! Reac  206
C7H15X2=>C4H8X1+NXC3H7                   2.454e+18   -1.654  31635.52
! Reac  207
C7H15X2=>C5H11X1+C2H4                    3.734e+15   -0.927  29637.91
! Reac  208
C7H15X2=>C2H5+C5H10X1                    1.368e+17   -1.394  29858.99
! Reac  209
C7H15X2+HO2=>NXC7H16+O2                  1.917e+08    0.871  -1588.91
! Reac  210
NXC7H16+CH3O2=>C7H15X2+CH3O2H            5.646e+12    0.201  17650.33
! Reac  211
NXC7H16+H=>C7H15X2+H2                    1.749e+06    2.600   4361.85
! Reac  212
NXC7H16=>PXC4H9+NXC3H7                   1.415e+78  -17.710 120700.05
! Reac  213
NXC7H16+HO2=>C7H15X2+H2O2                7.741e+12    0.203  17636.95
! Reac  214
NXC7H16=>C5H11X1+C2H5                    8.100e+77  -17.620 120400.10
! Reac  215
NXC7H16+CH3O=>C7H15X2+CH3OH              2.689e+11    0.136   5069.55
! Reac  216
NXC7H16+O=>C7H15X2+OH                    1.766e+05    2.802   2265.30
! Reac  217
NXC7H16+OH=>C7H15X2+H2O                  7.518e+08    1.494    260.52
! Reac  218
NXC7H16+CH3=>C7H15X2+CH4                 1.442e+04    2.573   6933.56
END
