"""
****************************************************************************
 "A Reduced Mechanism for Ethylene/Methane Mixtures with Excessive NO Enrichment"

       Zhaoyu Luo and Tianfeng Lu

       Department of Mechanical Engineering
       University of Connecticut

       Email: luozy@engr.uconn.edu

       Z. Luo et al., Combust. Flame, 158(7) 12451254, 2011.

****************************************************************************

     A 44-Species Skeletal Mechanism for CH4/C2H4 mixture with NO enrichment

     Valid parameter range:
       pressure: 0.5-10 atm
       equvalence ratio: 0.5 - 1.5
       Initial Temperature: 1000-1800 K
       NO concentration: 0%-3%
       auto-ignition, stirred reactors and laminar premix flames

****************************************************************************


"""

units(length='cm', time='s', quantity='mol', act_energy='cal/mol')

ideal_gas(name='gas',
          elements="O H C N Ar",
          species="""AR       N2       H        O        OH       HO2
                     H2       H2O      H2O2     O2       C        CH
                     CH2      CH2*     CH3      CH4      HCO      CH2O
                     CH3O     CH3OH    CO       CO2      C2H2     H2CC
                     C2H3     C2H4     C2H5     C2H6     HCCO     CH2CO
                     CH2CHO   CH2OCH2  aC3H4    aC3H5    C3H6     nC3H7
                     C4H81    N        NO       NO2      HCNO     HNCO
                     NCO      CH3O2""",
          reactions='all',
          transport='Mix',
          initial_state=state(temperature=300.0, pressure=OneAtm))

#-------------------------------------------------------------------------------
# Species data
#-------------------------------------------------------------------------------

species(name='AR',
        atoms='Ar:1',
        thermo=(NASA([300.00, 1000.00],
                     [ 2.50000000E+00,  0.00000000E+00,  0.00000000E+00,
                       0.00000000E+00,  0.00000000E+00, -7.45375000E+02,
                       4.36600000E+00]),
                NASA([1000.00, 5000.00],
                     [ 2.50000000E+00,  0.00000000E+00,  0.00000000E+00,
                       0.00000000E+00,  0.00000000E+00, -7.45375000E+02,
                       4.36600000E+00])),
        transport=gas_transport(geom='atom',
                                diam=3.33,
                                well_depth=136.5),
        note='120186')

species(name='N2',
        atoms='N:2',
        thermo=(NASA([300.00, 1000.00],
                     [ 3.29867700E+00,  1.40824040E-03, -3.96322200E-06,
                       5.64151500E-09, -2.44485400E-12, -1.02089990E+03,
                       3.95037200E+00]),
                NASA([1000.00, 5000.00],
                     [ 2.92664000E+00,  1.48797680E-03, -5.68476000E-07,
                       1.00970380E-10, -6.75335100E-15, -9.22797700E+02,
                       5.98052800E+00])),
        transport=gas_transport(geom='linear',
                                diam=3.621,
                                well_depth=97.53,
                                polar=1.76,
                                rot_relax=4.0),
        note='121286')

species(name='H',
        atoms='H:1',
        thermo=(NASA([200.00, 1000.00],
                     [ 2.50000000E+00,  7.05332819E-13, -1.99591964E-15,
                       2.30081632E-18, -9.27732332E-22,  2.54736599E+04,
                      -4.46682853E-01]),
                NASA([1000.00, 3500.00],
                     [ 2.50000001E+00, -2.30842973E-11,  1.61561948E-14,
                      -4.73515235E-18,  4.98197357E-22,  2.54736599E+04,
                      -4.46682914E-01])),
        transport=gas_transport(geom='atom',
                                diam=2.05,
                                well_depth=145.0),
        note='L7/88')

species(name='O',
        atoms='O:1',
        thermo=(NASA([200.00, 1000.00],
                     [ 3.16826710E+00, -3.27931884E-03,  6.64306396E-06,
                      -6.12806624E-09,  2.11265971E-12,  2.91222592E+04,
                       2.05193346E+00]),
                NASA([1000.00, 3500.00],
                     [ 2.56942078E+00, -8.59741137E-05,  4.19484589E-08,
                      -1.00177799E-11,  1.22833691E-15,  2.92175791E+04,
                       4.78433864E+00])),
        transport=gas_transport(geom='atom',
                                diam=2.75,
                                well_depth=80.0),
        note='L1/90')

species(name='OH',
        atoms='H:1 O:1',
        thermo=(NASA([200.00, 1000.00],
                     [ 4.12530561E+00, -3.22544939E-03,  6.52764691E-06,
                      -5.79853643E-09,  2.06237379E-12,  3.38153812E+03,
                      -6.90432960E-01]),
                NASA([1000.00, 6000.00],
                     [ 2.86472886E+00,  1.05650448E-03, -2.59082758E-07,
                       3.05218674E-11, -1.33195876E-15,  3.71885774E+03,
                       5.70164073E+00])),
        transport=gas_transport(geom='linear',
                                diam=2.75,
                                well_depth=80.0),
        note='S9/01')

species(name='HO2',
        atoms='H:1 O:2',
        thermo=(NASA([200.00, 1000.00],
                     [ 4.30179801E+00, -4.74912051E-03,  2.11582891E-05,
                      -2.42763894E-08,  9.29225124E-12,  2.94808040E+02,
                       3.71666245E+00]),
                NASA([1000.00, 3500.00],
                     [ 4.01721090E+00,  2.23982013E-03, -6.33658150E-07,
                       1.14246370E-10, -1.07908535E-14,  1.11856713E+02,
                       3.78510215E+00])),
        transport=gas_transport(geom='nonlinear',
                                diam=3.458,
                                well_depth=107.4,
                                rot_relax=1.0),
        note='L5/89')

species(name='H2',
        atoms='H:2',
        thermo=(NASA([200.00, 1000.00],
                     [ 2.34433112E+00,  7.98052075E-03, -1.94781510E-05,
                       2.01572094E-08, -7.37611761E-12, -9.17935173E+02,
                       6.83010238E-01]),
                NASA([1000.00, 3500.00],
                     [ 3.33727920E+00, -4.94024731E-05,  4.99456778E-07,
                      -1.79566394E-10,  2.00255376E-14, -9.50158922E+02,
                      -3.20502331E+00])),
        transport=gas_transport(geom='linear',
                                diam=2.92,
                                well_depth=38.0,
                                polar=0.79,
                                rot_relax=280.0),
        note='TPIS78')

species(name='H2O',
        atoms='H:2 O:1',
        thermo=(NASA([200.00, 1000.00],
                     [ 4.19864056E+00, -2.03643410E-03,  6.52040211E-06,
                      -5.48797062E-09,  1.77197817E-12, -3.02937267E+04,
                      -8.49032208E-01]),
                NASA([1000.00, 3500.00],
                     [ 3.03399249E+00,  2.17691804E-03, -1.64072518E-07,
                      -9.70419870E-11,  1.68200992E-14, -3.00042971E+04,
                       4.96677010E+00])),
        transport=gas_transport(geom='nonlinear',
                                diam=2.605,
                                well_depth=572.4,
                                dipole=1.844,
                                rot_relax=4.0),
        note='L8/89')

species(name='H2O2',
        atoms='H:2 O:2',
        thermo=(NASA([200.00, 1000.00],
                     [ 4.27611269E+00, -5.42822417E-04,  1.67335701E-05,
                      -2.15770813E-08,  8.62454363E-12, -1.77025821E+04,
                       3.43505074E+00]),
                NASA([1000.00, 3500.00],
                     [ 4.16500285E+00,  4.90831694E-03, -1.90139225E-06,
                       3.71185986E-10, -2.87908305E-14, -1.78617877E+04,
                       2.91615662E+00])),
        transport=gas_transport(geom='nonlinear',
                                diam=3.458,
                                well_depth=107.4,
                                rot_relax=3.8),
        note='L7/88')

species(name='O2',
        atoms='O:2',
        thermo=(NASA([200.00, 1000.00],
                     [ 3.78245636E+00, -2.99673416E-03,  9.84730201E-06,
                      -9.68129509E-09,  3.24372837E-12, -1.06394356E+03,
                       3.65767573E+00]),
                NASA([1000.00, 3500.00],
                     [ 3.28253784E+00,  1.48308754E-03, -7.57966669E-07,
                       2.09470555E-10, -2.16717794E-14, -1.08845772E+03,
                       5.45323129E+00])),
        transport=gas_transport(geom='linear',
                                diam=3.458,
                                well_depth=107.4,
                                polar=1.6,
                                rot_relax=3.8),
        note='TPIS89')

species(name='C',
        atoms='C:1',
        thermo=(NASA([200.00, 1000.00],
                     [ 2.55423955E+00, -3.21537724E-04,  7.33792245E-07,
                      -7.32234889E-10,  2.66521446E-13,  8.54438832E+04,
                       4.53130848E+00]),
                NASA([1000.00, 3500.00],
                     [ 2.49266888E+00,  4.79889284E-05, -7.24335020E-08,
                       3.74291029E-11, -4.87277893E-15,  8.54512953E+04,
                       4.80150373E+00])),
        transport=gas_transport(geom='atom',
                                diam=3.298,
                                well_depth=71.4),
        note='L11/88')

species(name='CH',
        atoms='C:1 H:1',
        thermo=(NASA([200.00, 1000.00],
                     [ 3.48981665E+00,  3.23835541E-04, -1.68899065E-06,
                       3.16217327E-09, -1.40609067E-12,  7.07972934E+04,
                       2.08401108E+00]),
                NASA([1000.00, 3500.00],
                     [ 2.87846473E+00,  9.70913681E-04,  1.44445655E-07,
                      -1.30687849E-10,  1.76079383E-14,  7.10124364E+04,
                       5.48497999E+00])),
        transport=gas_transport(geom='linear',
                                diam=2.75,
                                well_depth=80.0),
        note='TPIS79')

species(name='CH2',
        atoms='C:1 H:2',
        thermo=(NASA([200.00, 1000.00],
                     [ 3.76267867E+00,  9.68872143E-04,  2.79489841E-06,
                      -3.85091153E-09,  1.68741719E-12,  4.60040401E+04,
                       1.56253185E+00]),
                NASA([1000.00, 3500.00],
                     [ 2.87410113E+00,  3.65639292E-03, -1.40894597E-06,
                       2.60179549E-10, -1.87727567E-14,  4.62636040E+04,
                       6.17119324E+00])),
        transport=gas_transport(geom='linear',
                                diam=3.8,
                                well_depth=144.0),
        note='LS/93')

species(name='CH2*',
        atoms='C:1 H:2',
        thermo=(NASA([200.00, 1000.00],
                     [ 4.19860411E+00, -2.36661419E-03,  8.23296220E-06,
                      -6.68815981E-09,  1.94314737E-12,  5.04968163E+04,
                      -7.69118967E-01]),
                NASA([1000.00, 3500.00],
                     [ 2.29203842E+00,  4.65588637E-03, -2.01191947E-06,
                       4.17906000E-10, -3.39716365E-14,  5.09259997E+04,
                       8.62650169E+00])),
        transport=gas_transport(geom='linear',
                                diam=3.8,
                                well_depth=144.0),
        note='LS/93')

species(name='CH3',
        atoms='C:1 H:3',
        thermo=(NASA([200.00, 1000.00],
                     [ 3.67359040E+00,  2.01095175E-03,  5.73021856E-06,
                      -6.87117425E-09,  2.54385734E-12,  1.64449988E+04,
                       1.60456433E+00]),
                NASA([1000.00, 3500.00],
                     [ 2.28571772E+00,  7.23990037E-03, -2.98714348E-06,
                       5.95684644E-10, -4.67154394E-14,  1.67755843E+04,
                       8.48007179E+00])),
        transport=gas_transport(geom='linear',
                                diam=3.8,
                                well_depth=144.0),
        note='L11/89')

species(name='CH4',
        atoms='C:1 H:4',
        thermo=(NASA([200.00, 1000.00],
                     [ 5.14987613E+00, -1.36709788E-02,  4.91800599E-05,
                      -4.84743026E-08,  1.66693956E-11, -1.02466476E+04,
                      -4.64130376E+00]),
                NASA([1000.00, 3500.00],
                     [ 7.48514950E-02,  1.33909467E-02, -5.73285809E-06,
                       1.22292535E-09, -1.01815230E-13, -9.46834459E+03,
                       1.84373180E+01])),
        transport=gas_transport(geom='nonlinear',
                                diam=3.746,
                                well_depth=141.4,
                                polar=2.6,
                                rot_relax=13.0),
        note='L8/88')

species(name='HCO',
        atoms='C:1 H:1 O:1',
        thermo=(NASA([200.00, 1000.00],
                     [ 4.22118584E+00, -3.24392532E-03,  1.37799446E-05,
                      -1.33144093E-08,  4.33768865E-12,  3.83956496E+03,
                       3.39437243E+00]),
                NASA([1000.00, 3500.00],
                     [ 2.77217438E+00,  4.95695526E-03, -2.48445613E-06,
                       5.89161778E-10, -5.33508711E-14,  4.01191815E+03,
                       9.79834492E+00])),
        transport=gas_transport(geom='nonlinear',
                                diam=3.59,
                                well_depth=498.0),
        note='L12/89')

species(name='CH2O',
        atoms='C:1 H:2 O:1',
        thermo=(NASA([200.00, 1000.00],
                     [ 4.79372315E+00, -9.90833369E-03,  3.73220008E-05,
                      -3.79285261E-08,  1.31772652E-11, -1.43089567E+04,
                       6.02812900E-01]),
                NASA([1000.00, 3500.00],
                     [ 1.76069008E+00,  9.20000082E-03, -4.42258813E-06,
                       1.00641212E-09, -8.83855640E-14, -1.39958323E+04,
                       1.36563230E+01])),
        transport=gas_transport(geom='nonlinear',
                                diam=3.59,
                                well_depth=498.0,
                                rot_relax=2.0),
        note='L8/88')

species(name='CH3O',
        atoms='C:1 H:3 O:1',
        thermo=(NASA([200.00, 1000.00],
                     [ 3.71180502E+00, -2.80463306E-03,  3.76550971E-05,
                      -4.73072089E-08,  1.86588420E-11,  1.29569760E+03,
                       6.57240864E+00]),
                NASA([1000.00, 6000.00],
                     [ 4.75779238E+00,  7.44142474E-03, -2.69705176E-06,
                       4.38090504E-10, -2.63537098E-14,  3.78111940E+02,
                      -1.96680028E+00])),
        transport=gas_transport(geom='nonlinear',
                                diam=3.69,
                                well_depth=417.0,
                                dipole=1.7,
                                rot_relax=2.0),
        note='IU1/03')

species(name='CH3OH',
        atoms='C:1 H:4 O:1',
        thermo=(NASA([200.00, 1000.00],
                     [ 5.71539582E+00, -1.52309129E-02,  6.52441155E-05,
                      -7.10806889E-08,  2.61352698E-11, -2.56427656E+04,
                      -1.50409823E+00]),
                NASA([1000.00, 3500.00],
                     [ 1.78970791E+00,  1.40938292E-02, -6.36500835E-06,
                       1.38171085E-09, -1.17060220E-13, -2.53748747E+04,
                       1.45023623E+01])),
        transport=gas_transport(geom='nonlinear',
                                diam=3.626,
                                well_depth=481.8,
                                rot_relax=1.0),
        note='L8/88')

species(name='CO',
        atoms='C:1 O:1',
        thermo=(NASA([200.00, 1000.00],
                     [ 3.57953347E+00, -6.10353680E-04,  1.01681433E-06,
                       9.07005884E-10, -9.04424499E-13, -1.43440860E+04,
                       3.50840928E+00]),
                NASA([1000.00, 3500.00],
                     [ 2.71518561E+00,  2.06252743E-03, -9.98825771E-07,
                       2.30053008E-10, -2.03647716E-14, -1.41518724E+04,
                       7.81868772E+00])),
        transport=gas_transport(geom='linear',
                                diam=3.65,
                                well_depth=98.1,
                                polar=1.95,
                                rot_relax=1.8),
        note='TPIS79')

species(name='CO2',
        atoms='C:1 O:2',
        thermo=(NASA([200.00, 1000.00],
                     [ 2.35677352E+00,  8.98459677E-03, -7.12356269E-06,
                       2.45919022E-09, -1.43699548E-13, -4.83719697E+04,
                       9.90105222E+00]),
                NASA([1000.00, 3500.00],
                     [ 3.85746029E+00,  4.41437026E-03, -2.21481404E-06,
                       5.23490188E-10, -4.72084164E-14, -4.87591660E+04,
                       2.27163806E+00])),
        transport=gas_transport(geom='linear',
                                diam=3.763,
                                well_depth=244.0,
                                polar=2.65,
                                rot_relax=2.1),
        note='L7/88')

species(name='C2H2',
        atoms='C:2 H:2',
        thermo=(NASA([200.00, 1000.00],
                     [ 8.08681094E-01,  2.33615629E-02, -3.55171815E-05,
                       2.80152437E-08, -8.50072974E-12,  2.64289807E+04,
                       1.39397051E+01]),
                NASA([1000.00, 3500.00],
                     [ 4.14756964E+00,  5.96166664E-03, -2.37294852E-06,
                       4.67412171E-10, -3.61235213E-14,  2.59359992E+04,
                      -1.23028121E+00])),
        transport=gas_transport(geom='linear',
                                diam=4.1,
                                well_depth=209.0,
                                rot_relax=2.5),
        note='L1/91')

species(name='H2CC',
        atoms='C:2 H:2',
        thermo=(NASA([200.00, 1000.00],
                     [ 3.28154830E+00,  6.97647910E-03, -2.38552440E-06,
                      -1.21044320E-09,  9.81895450E-13,  4.86217940E+04,
                       5.92039100E+00]),
                NASA([1000.00, 6000.00],
                     [ 4.27803400E+00,  4.75628040E-03, -1.63010090E-06,
                       2.54628060E-10, -1.48863790E-14,  4.83166880E+04,
                       6.40237010E-01])),
        transport=gas_transport(geom='nonlinear',
                                diam=4.1,
                                well_depth=209.0,
                                rot_relax=2.5),
        note='L12/89')

species(name='C2H3',
        atoms='C:2 H:3',
        thermo=(NASA([200.00, 1000.00],
                     [ 3.21246645E+00,  1.51479162E-03,  2.59209412E-05,
                      -3.57657847E-08,  1.47150873E-11,  3.48598468E+04,
                       8.51054025E+00]),
                NASA([1000.00, 3500.00],
                     [ 3.01672400E+00,  1.03302292E-02, -4.68082349E-06,
                       1.01763288E-09, -8.62607041E-14,  3.46128739E+04,
                       7.78732378E+00])),
        transport=gas_transport(geom='nonlinear',
                                diam=4.1,
                                well_depth=209.0,
                                rot_relax=1.0),
        note='L2/92')

species(name='C2H4',
        atoms='C:2 H:4',
        thermo=(NASA([200.00, 1000.00],
                     [ 3.95920148E+00, -7.57052247E-03,  5.70990292E-05,
                      -6.91588753E-08,  2.69884373E-11,  5.08977593E+03,
                       4.09733096E+00]),
                NASA([1000.00, 3500.00],
                     [ 2.03611116E+00,  1.46454151E-02, -6.71077915E-06,
                       1.47222923E-09, -1.25706061E-13,  4.93988614E+03,
                       1.03053693E+01])),
        transport=gas_transport(geom='nonlinear',
                                diam=3.971,
                                well_depth=280.8,
                                rot_relax=1.5),
        note='L1/91')

species(name='C2H5',
        atoms='C:2 H:5',
        thermo=(NASA([200.00, 1000.00],
                     [ 4.30646568E+00, -4.18658892E-03,  4.97142807E-05,
                      -5.99126606E-08,  2.30509004E-11,  1.28416265E+04,
                       4.70720924E+00]),
                NASA([1000.00, 3500.00],
                     [ 1.95465642E+00,  1.73972722E-02, -7.98206668E-06,
                       1.75217689E-09, -1.49641576E-13,  1.28575200E+04,
                       1.34624343E+01])),
        transport=gas_transport(geom='nonlinear',
                                diam=4.302,
                                well_depth=252.3,
                                rot_relax=1.5),
        note='L12/92')

species(name='C2H6',
        atoms='C:2 H:6',
        thermo=(NASA([200.00, 1000.00],
                     [ 4.29142492E+00, -5.50154270E-03,  5.99438288E-05,
                      -7.08466285E-08,  2.68685771E-11, -1.15222055E+04,
                       2.66682316E+00]),
                NASA([1000.00, 3500.00],
                     [ 1.07188150E+00,  2.16852677E-02, -1.00256067E-05,
                       2.21412001E-09, -1.90002890E-13, -1.14263932E+04,
                       1.51156107E+01])),
        transport=gas_transport(geom='nonlinear',
                                diam=4.302,
                                well_depth=252.3,
                                rot_relax=1.5),
        note='L8/88')

species(name='HCCO',
        atoms='C:2 H:1 O:1',
        thermo=(NASA([300.00, 1000.00],
                     [ 2.25172140E+00,  1.76550210E-02, -2.37291010E-05,
                       1.72757590E-08, -5.06648110E-12,  2.00594490E+04,
                       1.24904170E+01]),
                NASA([1000.00, 4000.00],
                     [ 5.62820580E+00,  4.08534010E-03, -1.59345470E-06,
                       2.86260520E-10, -1.94078320E-14,  1.93272150E+04,
                      -3.93025950E+00])),
        transport=gas_transport(geom='nonlinear',
                                diam=2.5,
                                well_depth=150.0,
                                rot_relax=1.0),
        note='SRIC91')

species(name='CH2CO',
        atoms='C:2 H:2 O:1',
        thermo=(NASA([200.00, 1000.00],
                     [ 2.13583630E+00,  1.81188721E-02, -1.73947474E-05,
                       9.34397568E-09, -2.01457615E-12, -7.27000000E+03,
                       1.22156480E+01]),
                NASA([1000.00, 3500.00],
                     [ 4.51129732E+00,  9.00359745E-03, -4.16939635E-06,
                       9.23345882E-10, -7.94838201E-14, -7.77850000E+03,
                       6.32247205E-01])),
        transport=gas_transport(geom='nonlinear',
                                diam=3.97,
                                well_depth=436.0,
                                rot_relax=2.0),
        note='D05/90')

species(name='CH2CHO',
        atoms='C:2 H:3 O:1',
        thermo=(NASA([300.00, 1000.00],
                     [ 3.40906240E+00,  1.07385740E-02,  1.89149250E-06,
                      -7.15858310E-09,  2.86738510E-12,  6.20000000E+01,
                       9.57145350E+00]),
                NASA([1000.00, 5000.00],
                     [ 5.97566990E+00,  8.13059140E-03, -2.74362450E-06,
                       4.07030410E-10, -2.17601710E-14, -9.69500000E+02,
                      -5.03208790E+00])),
        transport=gas_transport(geom='nonlinear',
                                diam=3.97,
                                well_depth=436.0,
                                rot_relax=2.0),
        note='D05/83')

species(name='CH2OCH2',
        atoms='C:2 H:4 O:1',
        thermo=(NASA([298.15, 1000.00],
                     [ 3.75905320E+00, -9.44121800E-03,  8.03097210E-05,
                      -1.00807880E-07,  4.00399210E-11, -7.56081430E+03,
                       7.84974750E+00]),
                NASA([1000.00, 3000.00],
                     [ 5.48876410E+00,  1.20461900E-02, -4.33369310E-06,
                       7.00283110E-10, -4.19490880E-14, -9.18042510E+03,
                      -7.07996050E+00])),
        transport=gas_transport(geom='linear',
                                diam=4.76,
                                well_depth=252.0,
                                rot_relax=1.0),
        note='T6/92')

species(name='aC3H4',
        atoms='C:3 H:4',
        thermo=(NASA([200.00, 1000.00],
                     [ 2.61304450E+00,  1.21225750E-02,  1.85398800E-05,
                      -3.45251490E-08,  1.53350790E-11,  2.15415670E+04,
                       1.02261390E+01]),
                NASA([1000.00, 6000.00],
                     [ 6.31687220E+00,  1.11337280E-02, -3.96293780E-06,
                       6.35642380E-10, -3.78755400E-14,  2.01174950E+04,
                      -1.09957660E+01])),
        transport=gas_transport(geom='linear',
                                diam=4.76,
                                well_depth=252.0,
                                rot_relax=1.0),
        note='L8/89')

species(name='aC3H5',
        atoms='C:3 H:5',
        thermo=(NASA([300.00, 1000.00],
                     [ 1.36318350E+00,  1.98138210E-02,  1.24970600E-05,
                      -3.33555550E-08,  1.58465710E-11,  1.92456290E+04,
                       1.71732140E+01]),
                NASA([1000.00, 3000.00],
                     [ 6.50078770E+00,  1.43247310E-02, -5.67816320E-06,
                       1.10808010E-09, -9.03638870E-14,  1.74824490E+04,
                      -1.12430500E+01])),
        transport=gas_transport(geom='nonlinear',
                                diam=4.982,
                                well_depth=266.8,
                                rot_relax=1.0),
        note='PD5/98')

species(name='C3H6',
        atoms='C:3 H:6',
        thermo=(NASA([300.00, 1000.00],
                     [ 1.49330700E+00,  2.09251800E-02,  4.48679400E-06,
                      -1.66891200E-08,  7.15814600E-12,  1.07482600E+03,
                       1.61453400E+01]),
                NASA([1000.00, 5000.00],
                     [ 6.73225700E+00,  1.49083400E-02, -4.94989900E-06,
                       7.21202200E-10, -3.76620400E-14, -9.23570300E+02,
                      -1.33133500E+01])),
        transport=gas_transport(geom='nonlinear',
                                diam=4.982,
                                well_depth=266.8,
                                rot_relax=1.0),
        note='120186')

species(name='nC3H7',
        atoms='C:3 H:7',
        thermo=(NASA([300.00, 1000.00],
                     [ 1.04911730E+00,  2.60089730E-02,  2.35425160E-06,
                      -1.95951320E-08,  9.37202070E-12,  1.03123460E+04,
                       2.11360340E+01]),
                NASA([1000.00, 3000.00],
                     [ 7.70974790E+00,  1.60314850E-02, -5.27202380E-06,
                       7.58883520E-10, -3.88627190E-14,  7.97622360E+03,
                      -1.55152970E+01])),
        transport=gas_transport(geom='nonlinear',
                                diam=4.982,
                                well_depth=266.8,
                                rot_relax=1.0),
        note='P11/94')

species(name='C4H81',
        atoms='C:4 H:8',
        thermo=(NASA([300.00, 1000.00],
                     [ 1.18113800E+00,  3.08533800E-02,  5.08652470E-06,
                      -2.46548880E-08,  1.11101930E-11, -1.79040040E+03,
                       2.10624690E+01]),
                NASA([1000.00, 5000.00],
                     [ 2.05358410E+00,  3.43505070E-02, -1.58831970E-05,
                       3.30896620E-09, -2.53610450E-13, -2.13972310E+03,
                       1.55432010E+01])),
        transport=gas_transport(geom='nonlinear',
                                diam=5.176,
                                well_depth=357.0,
                                rot_relax=1.0),
        note='T6/83')

species(name='N',
        atoms='N:1',
        thermo=(NASA([200.00, 1000.00],
                     [ 2.50000000E+00,  0.00000000E+00,  0.00000000E+00,
                       0.00000000E+00,  0.00000000E+00,  5.61046370E+04,
                       4.19390870E+00]),
                NASA([1000.00, 6000.00],
                     [ 2.41594290E+00,  1.74890650E-04, -1.19023690E-07,
                       3.02262450E-11, -2.03609820E-15,  5.61337730E+04,
                       4.64960960E+00])),
        transport=gas_transport(geom='atom',
                                diam=3.298,
                                well_depth=71.4),
        note='L6/88')

species(name='NO',
        atoms='N:1 O:1',
        thermo=(NASA([200.00, 1000.00],
                     [ 4.21847630E+00, -4.63897600E-03,  1.10410220E-05,
                      -9.33613540E-09,  2.80357700E-12,  9.84462300E+03,
                       2.28084640E+00]),
                NASA([1000.00, 6000.00],
                     [ 3.26060560E+00,  1.19110430E-03, -4.29170480E-07,
                       6.94576690E-11, -4.03360990E-15,  9.92097460E+03,
                       6.36930270E+00])),
        transport=gas_transport(geom='linear',
                                diam=3.621,
                                well_depth=97.53,
                                polar=1.76,
                                rot_relax=4.0),
        note='RUS78')

species(name='NO2',
        atoms='N:1 O:2',
        thermo=(NASA([200.00, 1000.00],
                     [ 3.94403120E+00, -1.58542900E-03,  1.66578120E-05,
                      -2.04754260E-08,  7.83505640E-12,  2.89661790E+03,
                       6.31199170E+00]),
                NASA([1000.00, 6000.00],
                     [ 4.88475420E+00,  2.17239560E-03, -8.28069060E-07,
                       1.57475100E-10, -1.05108950E-14,  2.31649830E+03,