"""
****************************************************************************

   A 32-Species Skeletal Mechanism for C2H4-air

   Z. Luo, C.S. Yoo, E.S. Richardson, J.H. Chen, C.K. Law, and T.F. Lu,
   "Chemical explosive mode analysis for a turbulent lifted ethylene jet
   flame in highly-heated coflow,"
   Combustion and Flame,
   doi:10.1016/j.combustflame.2011.05.023, 2011.

****************************************************************************

"""

units(length='cm', time='s', quantity='mol', act_energy='cal/mol')

ideal_gas(name='gas',
          elements="O H C N Ar",
          species="""H2      H       O       O2      OH      H2O     HO2
                     H2O2    CH      CH2     CH2*    CH3     CH4     CO
                     CO2     HCO     CH2O    CH3O    C2H2    H2CC    C2H3
                     C2H4    C2H5    C2H6    HCCO    CH2CO   CH2CHO  CH3CHO
                     aC3H5   C3H6    nC3H7   N2""",
          reactions='all',
          transport='Mix',
          initial_state=state(temperature=300.0, pressure=OneAtm))

#-------------------------------------------------------------------------------
# Species data
#-------------------------------------------------------------------------------

species(name='H2',
        atoms='H:2',
        thermo=(NASA([200.00, 1000.00],
                     [ 2.34433112E+00,  7.98052075E-03, -1.94781510E-05,
                       2.01572094E-08, -7.37611761E-12, -9.17935173E+02,
                       6.83010238E-01]),
                NASA([1000.00, 3500.00],
                     [ 3.33727920E+00, -4.94024731E-05,  4.99456778E-07,
                      -1.79566394E-10,  2.00255376E-14, -9.50158922E+02,
                      -3.20502331E+00])),
        transport=gas_transport(geom='linear',
                                diam=2.92,
                                well_depth=38.0,
                                polar=0.79,
                                rot_relax=280.0),
        note='TPIS78')

species(name='H',
        atoms='H:1',
        thermo=(NASA([200.00, 1000.00],
                     [ 2.50000000E+00,  7.05332819E-13, -1.99591964E-15,
                       2.30081632E-18, -9.27732332E-22,  2.54736599E+04,
                      -4.46682853E-01]),
                NASA([1000.00, 3500.00],
                     [ 2.50000001E+00, -2.30842973E-11,  1.61561948E-14,
                      -4.73515235E-18,  4.98197357E-22,  2.54736599E+04,
                      -4.46682914E-01])),
        transport=gas_transport(geom='atom',
                                diam=2.05,
                                well_depth=145.0),
        note='L7/88')

species(name='O',
        atoms='O:1',
        thermo=(NASA([200.00, 1000.00],
                     [ 3.16826710E+00, -3.27931884E-03,  6.64306396E-06,
                      -6.12806624E-09,  2.11265971E-12,  2.91222592E+04,
                       2.05193346E+00]),
                NASA([1000.00, 3500.00],
                     [ 2.56942078E+00, -8.59741137E-05,  4.19484589E-08,
                      -1.00177799E-11,  1.22833691E-15,  2.92175791E+04,
                       4.78433864E+00])),
        transport=gas_transport(geom='atom',
                                diam=2.75,
                                well_depth=80.0),
        note='L1/90')

species(name='O2',
        atoms='O:2',
        thermo=(NASA([200.00, 1000.00],
                     [ 3.78245636E+00, -2.99673416E-03,  9.84730201E-06,
                      -9.68129509E-09,  3.24372837E-12, -1.06394356E+03,
                       3.65767573E+00]),
                NASA([1000.00, 3500.00],
                     [ 3.28253784E+00,  1.48308754E-03, -7.57966669E-07,
                       2.09470555E-10, -2.16717794E-14, -1.08845772E+03,
                       5.45323129E+00])),
        transport=gas_transport(geom='linear',
                                diam=3.458,
                                well_depth=107.4,
                                polar=1.6,
                                rot_relax=3.8),
        note='TPIS89')

species(name='OH',
        atoms='H:1 O:1',
        thermo=(NASA([200.00, 1000.00],
                     [ 3.99201543E+00, -2.40131752E-03,  4.61793841E-06,
                      -3.88113333E-09,  1.36411470E-12,  3.61508056E+03,
                      -1.03925458E-01]),
                NASA([1000.00, 3500.00],
                     [ 3.09288767E+00,  5.48429716E-04,  1.26505228E-07,
                      -8.79461556E-11,  1.17412376E-14,  3.85865700E+03,
                       4.47669610E+00])),
        transport=gas_transport(geom='linear',
                                diam=2.75,
                                well_depth=80.0),
        note='RUS78')

species(name='H2O',
        atoms='H:2 O:1',
        thermo=(NASA([200.00, 1000.00],
                     [ 4.19864056E+00, -2.03643410E-03,  6.52040211E-06,
                      -5.48797062E-09,  1.77197817E-12, -3.02937267E+04,
                      -8.49032208E-01]),
                NASA([1000.00, 3500.00],
                     [ 3.03399249E+00,  2.17691804E-03, -1.64072518E-07,
                      -9.70419870E-11,  1.68200992E-14, -3.00042971E+04,
                       4.96677010E+00])),
        transport=gas_transport(geom='nonlinear',
                                diam=2.605,
                                well_depth=572.4,
                                dipole=1.844,
                                rot_relax=4.0),
        note='L8/89')

species(name='HO2',
        atoms='H:1 O:2',
        thermo=(NASA([200.00, 1000.00],
                     [ 4.30179801E+00, -4.74912051E-03,  2.11582891E-05,
                      -2.42763894E-08,  9.29225124E-12,  2.94808040E+02,
                       3.71666245E+00]),
                NASA([1000.00, 3500.00],
                     [ 4.01721090E+00,  2.23982013E-03, -6.33658150E-07,
                       1.14246370E-10, -1.07908535E-14,  1.11856713E+02,
                       3.78510215E+00])),
        transport=gas_transport(geom='nonlinear',
                                diam=3.458,
                                well_depth=107.4,
                                rot_relax=1.0),
        note='L5/89')

species(name='H2O2',
        atoms='H:2 O:2',
        thermo=(NASA([200.00, 1000.00],
                     [ 4.27611269E+00, -5.42822417E-04,  1.67335701E-05,
                      -2.15770813E-08,  8.62454363E-12, -1.77025821E+04,
                       3.43505074E+00]),
                NASA([1000.00, 3500.00],
                     [ 4.16500285E+00,  4.90831694E-03, -1.90139225E-06,
                       3.71185986E-10, -2.87908305E-14, -1.78617877E+04,
                       2.91615662E+00])),
        transport=gas_transport(geom='nonlinear',
                                diam=3.458,
                                well_depth=107.4,
                                rot_relax=3.8),
        note='L7/88')

species(name='CH',
        atoms='C:1 H:1',
        thermo=(NASA([200.00, 1000.00],
                     [ 3.48981665E+00,  3.23835541E-04, -1.68899065E-06,
                       3.16217327E-09, -1.40609067E-12,  7.07972934E+04,
                       2.08401108E+00]),
                NASA([1000.00, 3500.00],
                     [ 2.87846473E+00,  9.70913681E-04,  1.44445655E-07,
                      -1.30687849E-10,  1.76079383E-14,  7.10124364E+04,
                       5.48497999E+00])),
        transport=gas_transport(geom='linear',
                                diam=2.75,
                                well_depth=80.0),
        note='TPIS79')

species(name='CH2',
        atoms='C:1 H:2',
        thermo=(NASA([200.00, 1000.00],
                     [ 3.76267867E+00,  9.68872143E-04,  2.79489841E-06,
                      -3.85091153E-09,  1.68741719E-12,  4.60040401E+04,
                       1.56253185E+00]),
                NASA([1000.00, 3500.00],
                     [ 2.87410113E+00,  3.65639292E-03, -1.40894597E-06,
                       2.60179549E-10, -1.87727567E-14,  4.62636040E+04,
                       6.17119324E+00])),
        transport=gas_transport(geom='linear',
                                diam=3.8,
                                well_depth=144.0),
        note='LS/93')

species(name='CH2*',
        atoms='C:1 H:2',
        thermo=(NASA([200.00, 1000.00],
                     [ 4.19860411E+00, -2.36661419E-03,  8.23296220E-06,
                      -6.68815981E-09,  1.94314737E-12,  5.04968163E+04,
                      -7.69118967E-01]),
                NASA([1000.00, 3500.00],
                     [ 2.29203842E+00,  4.65588637E-03, -2.01191947E-06,
                       4.17906000E-10, -3.39716365E-14,  5.09259997E+04,
                       8.62650169E+00])),
        transport=gas_transport(geom='linear',
                                diam=3.8,
                                well_depth=144.0),
        note='LS/93')

species(name='CH3',
        atoms='C:1 H:3',
        thermo=(NASA([200.00, 1000.00],
                     [ 3.67359040E+00,  2.01095175E-03,  5.73021856E-06,
                      -6.87117425E-09,  2.54385734E-12,  1.64449988E+04,
                       1.60456433E+00]),
                NASA([1000.00, 3500.00],
                     [ 2.28571772E+00,  7.23990037E-03, -2.98714348E-06,
                       5.95684644E-10, -4.67154394E-14,  1.67755843E+04,
                       8.48007179E+00])),
        transport=gas_transport(geom='linear',
                                diam=3.8,
                                well_depth=144.0),
        note='L11/89')

species(name='CH4',
        atoms='C:1 H:4',
        thermo=(NASA([200.00, 1000.00],
                     [ 5.14987613E+00, -1.36709788E-02,  4.91800599E-05,
                      -4.84743026E-08,  1.66693956E-11, -1.02466476E+04,
                      -4.64130376E+00]),
                NASA([1000.00, 3500.00],
                     [ 7.48514950E-02,  1.33909467E-02, -5.73285809E-06,
                       1.22292535E-09, -1.01815230E-13, -9.46834459E+03,
                       1.84373180E+01])),
        transport=gas_transport(geom='nonlinear',
                                diam=3.746,
                                well_depth=141.4,
                                polar=2.6,
                                rot_relax=13.0),
        note='L8/88')

species(name='CO',
        atoms='C:1 O:1',
        thermo=(NASA([200.00, 1000.00],
                     [ 3.57953347E+00, -6.10353680E-04,  1.01681433E-06,
                       9.07005884E-10, -9.04424499E-13, -1.43440860E+04,
                       3.50840928E+00]),
                NASA([1000.00, 3500.00],
                     [ 2.71518561E+00,  2.06252743E-03, -9.98825771E-07,
                       2.30053008E-10, -2.03647716E-14, -1.41518724E+04,
                       7.81868772E+00])),
        transport=gas_transport(geom='linear',
                                diam=3.65,
                                well_depth=98.1,
                                polar=1.95,
                                rot_relax=1.8),
        note='TPIS79')

species(name='CO2',
        atoms='C:1 O:2',
        thermo=(NASA([200.00, 1000.00],
                     [ 2.35677352E+00,  8.98459677E-03, -7.12356269E-06,
                       2.45919022E-09, -1.43699548E-13, -4.83719697E+04,
                       9.90105222E+00]),
                NASA([1000.00, 3500.00],
                     [ 3.85746029E+00,  4.41437026E-03, -2.21481404E-06,
                       5.23490188E-10, -4.72084164E-14, -4.87591660E+04,
                       2.27163806E+00])),
        transport=gas_transport(geom='linear',
                                diam=3.763,
                                well_depth=244.0,
                                polar=2.65,
                                rot_relax=2.1),
        note='L7/88')

species(name='HCO',
        atoms='C:1 H:1 O:1',
        thermo=(NASA([200.00, 1000.00],
                     [ 4.22118584E+00, -3.24392532E-03,  1.37799446E-05,
                      -1.33144093E-08,  4.33768865E-12,  3.83956496E+03,
                       3.39437243E+00]),
                NASA([1000.00, 3500.00],
                     [ 2.77217438E+00,  4.95695526E-03, -2.48445613E-06,
                       5.89161778E-10, -5.33508711E-14,  4.01191815E+03,
                       9.79834492E+00])),
        transport=gas_transport(geom='nonlinear',
                                diam=3.59,
                                well_depth=498.0),
        note='L12/89')

species(name='CH2O',
        atoms='C:1 H:2 O:1',
        thermo=(NASA([200.00, 1000.00],
                     [ 4.79372315E+00, -9.90833369E-03,  3.73220008E-05,
                      -3.79285261E-08,  1.31772652E-11, -1.43089567E+04,
                       6.02812900E-01]),
                NASA([1000.00, 3500.00],
                     [ 1.76069008E+00,  9.20000082E-03, -4.42258813E-06,
                       1.00641212E-09, -8.83855640E-14, -1.39958323E+04,
                       1.36563230E+01])),
        transport=gas_transport(geom='nonlinear',
                                diam=3.59,
                                well_depth=498.0,
                                rot_relax=2.0),
        note='L8/88')

species(name='CH3O',
        atoms='C:1 H:3 O:1',
        thermo=(NASA([300.00, 1000.00],
                     [ 2.10620400E+00,  7.21659500E-03,  5.33847200E-06,
                      -7.37763600E-09,  2.07561000E-12,  9.78601100E+02,
                       1.31521770E+01]),
                NASA([1000.00, 3000.00],
                     [ 3.77079900E+00,  7.87149700E-03, -2.65638400E-06,
                       3.94443100E-10, -2.11261600E-14,  1.27832520E+02,
                       2.92957500E+00])),
        transport=gas_transport(geom='nonlinear',
                                diam=3.69,
                                well_depth=417.0,
                                dipole=1.7,
                                rot_relax=2.0),
        note='121686')

species(name='C2H2',
        atoms='C:2 H:2',
        thermo=(NASA([200.00, 1000.00],
                     [ 8.08681094E-01,  2.33615629E-02, -3.55171815E-05,
                       2.80152437E-08, -8.50072974E-12,  2.64289807E+04,
                       1.39397051E+01]),
                NASA([1000.00, 3500.00],
                     [ 4.14756964E+00,  5.96166664E-03, -2.37294852E-06,
                       4.67412171E-10, -3.61235213E-14,  2.59359992E+04,
                      -1.23028121E+00])),
        transport=gas_transport(geom='linear',
                                diam=4.1,
                                well_depth=209.0,
                                rot_relax=2.5),
        note='L1/91')

species(name='H2CC',
        atoms='C:2 H:2',
        thermo=(NASA([200.00, 1000.00],
                     [ 3.28154830E+00,  6.97647910E-03, -2.38552440E-06,
                      -1.21044320E-09,  9.81895450E-13,  4.86217940E+04,
                       5.92039100E+00]),
                NASA([1000.00, 6000.00],
                     [ 4.27803400E+00,  4.75628040E-03, -1.63010090E-06,
                       2.54628060E-10, -1.48863790E-14,  4.83166880E+04,
                       6.40237010E-01])),
        transport=gas_transport(geom='nonlinear',
                                diam=4.1,
                                well_depth=209.0,
                                rot_relax=2.5),
        note='L12/89')

species(name='C2H3',
        atoms='C:2 H:3',
        thermo=(NASA([200.00, 1000.00],
                     [ 3.21246645E+00,  1.51479162E-03,  2.59209412E-05,
                      -3.57657847E-08,  1.47150873E-11,  3.48598468E+04,
                       8.51054025E+00]),
                NASA([1000.00, 3500.00],
                     [ 3.01672400E+00,  1.03302292E-02, -4.68082349E-06,
                       1.01763288E-09, -8.62607041E-14,  3.46128739E+04,
                       7.78732378E+00])),
        transport=gas_transport(geom='nonlinear',
                                diam=4.1,
                                well_depth=209.0,
                                rot_relax=1.0),
        note='L2/92')

species(name='C2H4',
        atoms='C:2 H:4',
        thermo=(NASA([200.00, 1000.00],
                     [ 3.95920148E+00, -7.57052247E-03,  5.70990292E-05,
                      -6.91588753E-08,  2.69884373E-11,  5.08977593E+03,
                       4.09733096E+00]),
                NASA([1000.00, 3500.00],
                     [ 2.03611116E+00,  1.46454151E-02, -6.71077915E-06,
                       1.47222923E-09, -1.25706061E-13,  4.93988614E+03,
                       1.03053693E+01])),
        transport=gas_transport(geom='nonlinear',
                                diam=3.971,
                                well_depth=280.8,
                                rot_relax=1.5),
        note='L1/91')

species(name='C2H5',
        atoms='C:2 H:5',
        thermo=(NASA([200.00, 1000.00],
                     [ 4.30646568E+00, -4.18658892E-03,  4.97142807E-05,
                      -5.99126606E-08,  2.30509004E-11,  1.28416265E+04,
                       4.70720924E+00]),
                NASA([1000.00, 3500.00],
                     [ 1.95465642E+00,  1.73972722E-02, -7.98206668E-06,
                       1.75217689E-09, -1.49641576E-13,  1.28575200E+04,
                       1.34624343E+01])),
        transport=gas_transport(geom='nonlinear',
                                diam=4.302,
                                well_depth=252.3,
                                rot_relax=1.5),
        note='L12/92')

species(name='C2H6',
        atoms='C:2 H:6',
        thermo=(NASA([200.00, 1000.00],
                     [ 4.29142492E+00, -5.50154270E-03,  5.99438288E-05,
                      -7.08466285E-08,  2.68685771E-11, -1.15222055E+04,
                       2.66682316E+00]),
                NASA([1000.00, 3500.00],
                     [ 1.07188150E+00,  2.16852677E-02, -1.00256067E-05,
                       2.21412001E-09, -1.90002890E-13, -1.14263932E+04,
                       1.51156107E+01])),
        transport=gas_transport(geom='nonlinear',
                                diam=4.302,
                                well_depth=252.3,
                                rot_relax=1.5),
        note='L8/88')

species(name='HCCO',
        atoms='C:2 H:1 O:1',
        thermo=(NASA([300.00, 1000.00],
                     [ 2.25172140E+00,  1.76550210E-02, -2.37291010E-05,
                       1.72757590E-08, -5.06648110E-12,  2.00594490E+04,
                       1.24904170E+01]),
                NASA([1000.00, 4000.00],
                     [ 5.62820580E+00,  4.08534010E-03, -1.59345470E-06,
                       2.86260520E-10, -1.94078320E-14,  1.93272150E+04,
                      -3.93025950E+00])),
        transport=gas_transport(geom='nonlinear',
                                diam=2.5,
                                well_depth=150.0,
                                rot_relax=1.0),
        note='SRIC91')

species(name='CH2CO',
        atoms='C:2 H:2 O:1',
        thermo=(NASA([200.00, 1000.00],
                     [ 2.13583630E+00,  1.81188721E-02, -1.73947474E-05,
                       9.34397568E-09, -2.01457615E-12, -7.04291804E+03,
                       1.22156480E+01]),
                NASA([1000.00, 3500.00],
                     [ 4.51129732E+00,  9.00359745E-03, -4.16939635E-06,
                       9.23345882E-10, -7.94838201E-14, -7.55105311E+03,
                       6.32247205E-01])),
        transport=gas_transport(geom='nonlinear',
                                diam=3.97,
                                well_depth=436.0,
                                rot_relax=2.0),
        note='L5/90')

species(name='CH2CHO',
        atoms='C:2 H:3 O:1',
        thermo=(NASA([300.00, 1000.00],
                     [ 3.40906240E+00,  1.07385740E-02,  1.89149250E-06,
                       7.15858310E-09,  2.86738510E-12,  1.52147660E+03,
                       9.57145350E+00]),
                NASA([1000.00, 5000.00],
                     [ 5.97566990E+00,  8.13059140E-03, -2.74362450E-06,
                       4.07030410E-10, -2.17601710E-14,  4.90321780E+02,
                      -5.03208790E+00])),
        transport=gas_transport(geom='nonlinear',
                                diam=3.97,
                                well_depth=436.0,
                                rot_relax=2.0),
        note='T04/83')

species(name='CH3CHO',
        atoms='C:2 H:4 O:1',
        thermo=(NASA([200.00, 1000.00],
                     [ 4.72945950E+00, -3.19328580E-03,  4.75349210E-05,
                      -5.74586110E-08,  2.19311120E-11, -2.15728780E+04,
                       4.10301590E+00]),
                NASA([1000.00, 6000.00],
                     [ 5.40411080E+00,  1.17230590E-02, -4.22631370E-06,
                       6.83724510E-10, -4.09848630E-14, -2.25931220E+04,
                      -3.48079170E+00])),
        transport=gas_transport(geom='nonlinear',
                                diam=3.97,
                                well_depth=436.0,
                                rot_relax=2.0),
        note='L8/88')

species(name='aC3H5',
        atoms='C:3 H:5',
        thermo=(NASA([300.00, 1000.00],
                     [ 1.36318350E+00,  1.98138210E-02,  1.24970600E-05,
                      -3.33555550E-08,  1.58465710E-11,  1.92456290E+04,
                       1.71732140E+01]),
                NASA([1000.00, 3000.00],
                     [ 6.50078770E+00,  1.43247310E-02, -5.67816320E-06,
                       1.10808010E-09, -9.03638870E-14,  1.74824490E+04,
                      -1.12430500E+01])),
        transport=gas_transport(geom='nonlinear',
                                diam=4.982,
                                well_depth=266.8,
                                rot_relax=1.0),
        note='PD5/98')

species(name='C3H6',
        atoms='C:3 H:6',
        thermo=(NASA([300.00, 1000.00],
                     [ 1.49330700E+00,  2.09251800E-02,  4.48679400E-06,
                      -1.66891200E-08,  7.15814600E-12,  1.07482600E+03,
                       1.61453400E+01]),
                NASA([1000.00, 5000.00],
                     [ 6.73225700E+00,  1.49083400E-02, -4.94989900E-06,
                       7.21202200E-10, -3.76620400E-14, -9.23570300E+02,
                      -1.33133500E+01])),
        transport=gas_transport(geom='nonlinear',
                                diam=4.982,
                                well_depth=266.8,
                                rot_relax=1.0),
        note='120186')

species(name='nC3H7',
        atoms='C:3 H:7',
        thermo=(NASA([300.00, 1000.00],
                     [ 1.04911730E+00,  2.60089730E-02,  2.35425160E-06,
                      -1.95951320E-08,  9.37202070E-12,  1.03123460E+04,
                       2.11360340E+01]),
                NASA([1000.00, 3000.00],
                     [ 7.70974790E+00,  1.60314850E-02, -5.27202380E-06,
                       7.58883520E-10, -3.88627190E-14,  7.97622360E+03,
                      -1.55152970E+01])),
        transport=gas_transport(geom='nonlinear',
                                diam=4.982,
                                well_depth=266.8,
                                rot_relax=1.0),
        note='P11/94')

species(name='N2',
        atoms='N:2',
        thermo=(NASA([300.00, 1000.00],
                     [ 3.29867700E+00,  1.40824040E-03, -3.96322200E-06,
                       5.64151500E-09, -2.44485400E-12, -1.02089990E+03,
                       3.95037200E+00]),
                NASA([1000.00, 5000.00],
                     [ 2.92664000E+00,  1.48797680E-03, -5.68476000E-07,
                       1.00970380E-10, -6.75335100E-15, -9.22797700E+02,
                       5.98052800E+00])),
        transport=gas_transport(geom='linear',
                                diam=3.621,
                                well_depth=97.53,
                                polar=1.76,
                                rot_relax=4.0),
        note='121286')

#-------------------------------------------------------------------------------
# Reaction data
#-------------------------------------------------------------------------------
# R1

# Reaction 1
reaction('H + O2 <=> O + OH', [8.300000e+13, 0.0, 14413.0])
#   GRI1.2
# R2

# Reaction 2
reaction('O + H2 <=> H + OH', [5.000000e+04, 2.67, 6290.0])
#   GRI1.2
# R3

# Reaction 3
reaction('OH + H2 <=> H + H2O', [2.160000e+08, 1.51, 3430.0])
#   GRI1.2
# R4

# Reaction 4
reaction('OH + OH <=> O + H2O', [3.570000e+04, 2.4, -2110.0])
#   GRI1.2
# R5

# Reaction 5
three_body_reaction('H + H + M <=> H2 + M', [1.000000e+18, -1.0, 0.0],
                    efficiencies='C2H2:3.0 C2H4:3.0 C2H6:3.0 CH4:2.0 CO2:0.0 H2:0.0 H2O:0.0')
#   GRI1.2
# R6

# Reaction 6
reaction('H + H + H2 <=> H2 + H2', [9.000000e+16, -0.6, 0.0])
#   GRI1.2
# R7

# Reaction 7
reaction('H + H + H2O <=> H2 + H2O', [6.000000e+19, -1.25, 0.0])
#   GRI1.2
# R8

# Reaction 8
reaction('H + H + CO2 <=> H2 + CO2', [5.500000e+20, -2.0, 0.0])
#   GRI1.2
# R9

# Reaction 9
three_body_reaction('H + OH + M <=> H2O + M', [2.200000e+22, -2.0, 0.0],
                    efficiencies='C2H2:3.0 C2H4:3.0 C2H6:3.0 CH4:2.0 H2:0.73 H2O:3.65')
#   GRI1.2
# R10

# Reaction 10
three_body_reaction('O + H + M <=> OH + M', [5.000000e+17, -1.0, 0.0],
                    efficiencies='C2H2:3.0 C2H4:3.0 C2H6:3.0 CH4:2.0 CO:1.5 CO2:2.0 H2:2.0 H2O:6.0')
#   GRI1.2
# R11

# Reaction 11
three_body_reaction('O + O + M <=> O2 + M', [1.200000e+17, -1.0, 0.0],
                    efficiencies='C2H2:3.0 C2H4:3.0 C2H6:3.0 CH4:2.0 CO:1.75 CO2:3.6 H2:2.4 H2O:15.4')
#   GRI1.2
# R12

# Reaction 12
three_body_reaction('H + O2 + M <=> HO2 + M', [2.800000e+18, -0.86, 0.0],
                    efficiencies='C2H2:3.0 C2H4:3.0 C2H6:1.5 CO:0.75 CO2:1.5 H2O:0.0 N2:0.0 O2:0.0')
#   GRI1.2
# R13

# Reaction 13
reaction('H + O2 + O2 <=> HO2 + O2', [3.000000e+20, -1.72, 0.0])
#   GRI1.2
# R14

# Reaction 14
reaction('H + O2 + H2O <=> HO2 + H2O', [1.652000e+19, -0.76, 0.0])
#   GRI-Mech 1.2a
# R15

# Reaction 15
reaction('H + O2 + N2 <=> HO2 + N2', [2.600000e+19, -1.24, 0.0])
#   New Stanf. measur.
# R16

# Reaction 16
falloff_reaction('OH + OH (+ M) <=> H2O2 (+ M)',
                 kf=[7.400000e+13, -0.37, 0.0],
                 kf0=[2.300000e+18, -0.9, -1700.0],
                 efficiencies='C2H2:3.0 C2H4:3.0 C2H6:3.0 CH4:2.0 CO:1.5 CO2:2.0 H2:2.0 H2O:6.0',
                 falloff=Troe(A=0.7346, T3=94.0, T1=1756.0, T2=5182.0))
#   GRI1.2
# R17

# Reaction 17
reaction('HO2 + H <=> O + H2O', [3.970000e+12, 0.0, 671.0])
#   GRI1.2
# R18

# Reaction 18
reaction('HO2 + H <=> O2 + H2', [1.660000e+13, 0.0, 820.0])
#   Mueller et al.
# R19

# Reaction 19
reaction('HO2 + H <=> OH + OH', [7.080000e+13, 0.0, 300.0])
#   Mueller et al.
# R20

# Reaction 20
reaction('HO2 + O <=> OH + O2', [2.000000e+13, 0.0, 0.0])
#   GRI1.2
# R21

# Reaction 21
reaction('HO2 + OH <=> O2 + H2O', [4.640000e+13, 0.0, -500.0])
#   GRI-Mech 1.2a
# R22

# Reaction 22
reaction('HO2 + HO2 <=> O2 + H2O2', [1.300000e+11, 0.0, -1630.0],
         options='duplicate')
#   GRI1.2
# R23

# Reaction 23
reaction('HO2 + HO2 <=> O2 + H2O2', [4.200000e+14, 0.0, 12000.0],
         options='duplicate')
#   GRI1.2
# R24

# Reaction 24
reaction('H2O2 + H <=> HO2 + H2', [1.210000e+07, 2.0, 5200.0])
#   GRI1.2
# R25

# Reaction 25
reaction('H2O2 + H <=> OH + H2O', [1.000000e+13, 0.0, 3600.0])
#   GRI1.2
# R26

# Reaction 26
reaction('H2O2 + O <=> OH + HO2', [9.630000e+06, 2.0, 4000.0])
#   GRI1.2
# R27

# Reaction 27
reaction('H2O2 + OH <=> HO2 + H2O', [1.750000e+12, 0.0, 320.0],
         options='duplicate')
#   GRI1.2
# R28

# Reaction 28
reaction('H2O2 + OH <=> HO2 + H2O', [5.800000e+14, 0.0, 9560.0],
         options='duplicate')
#   GRI1.2
# R29

# Reaction 29
three_body_reaction('CO + O + M <=> CO2 + M', [6.020000e+14, 0.0, 3000.0],
                    efficiencies='C2H2:3.0 C2H4:3.0 C2H6:3.0 CH4:2.0 CO:1.5 CO2:3.5 H2:2.0 H2O:6.0 O2:6.0')
#   GRI1.2
# R30

# Reaction 30
reaction('CO + OH <=> CO2 + H', [4.760000e+07, 1.228, 70.0])
#   GRI1.2
# R31

# Reaction 31
falloff_reaction('CO + H2 (+ M) <=> CH2O (+ M)',
                 kf=[4.300000e+07, 1.5, 79600.0],
                 kf0=[5.070000e+27, -3.42, 84350.0],
                 efficiencies='C2H2:3.0 C2H4:3.0 C2H6:3.0 CH4:2.0 CO:1.5 CO2:2.0 H2:2.0 H2O:6.0',
                 falloff=Troe(A=0.932, T3=197.0, T1=1540.0, T2=10300.0))
#   GRI1.2
# R32

# Reaction 32
reaction('CO + O2 <=> CO2 + O', [2.500000e+12, 0.0, 47800.0])
#   GRI1.2
# R33

# Reaction 33
reaction('CO + HO2 <=> CO2 + OH', [1.500000e+14, 0.0, 23600.0])
#   GRI1.2
# R34

# Reaction 34
reaction('CH + O <=> CO + H', [5.700000e+13, 0.0, 0.0])
#   GRI1.2
# R35

# Reaction 35
reaction('CH + OH <=> HCO + H', [3.000000e+13, 0.0, 0.0])
#   GRI1.2
# R36

# Reaction 36
reaction('CH + H2 <=> CH2 + H', [1.107000e+08, 1.79, 1670.0])
#   GRI1.2
# R37

# Reaction 37
reaction('CH + H2O <=> CH2O + H', [5.710000e+12, 0.0, -755.0])
#   GRI1.2
# R38

# Reaction 38
reaction('CH + O2 <=> HCO + O', [3.300000e+13, 0.0, 0.0])
#   GRI1.2
# R39

# Reaction 39
falloff_reaction('CH + CO (+ M) <=> HCCO (+ M)',
                 kf=[5.000000e+13, 0.0, 0.0],
                 kf0=[2.690000e+28, -3.74, 1936.0],
                 efficiencies='C2H2:3.0 C2H4:3.0 C2H6:3.0 CH4:2.0 CO:1.5 CO2:2.0 H2:2.0 H2O:6.0',
                 falloff=Troe(A=0.5757, T3=237.0, T1=1652.0, T2=5069.0))
#   GRI1.2
# R40

# Reaction 40
reaction('CH + CO2 <=> HCO + CO', [3.400000e+12, 0.0, 690.0])
#   GRI1.2
# R41

# Reaction 41
falloff_reaction('HCO + H (+ M) <=> CH2O (+ M)',
                 kf=[1.090000e+12, 0.48, -260.0],
                 kf0=[1.350000e+24, -2.57, 1425.0],
                 efficiencies='C2H2:3.0 C2H4:3.0 C2H6:3.0 CH4:2.0 CO:1.5 CO2:2.0 H2:2.0 H2O:6.0',
                 falloff=Troe(A=0.7824, T3=271.0, T1=2755.0, T2=6570.0))
#   GRI1.2
# R42

# Reaction 42