"""

     A 17 species skeletal mechanism for lean atmospheric CH4/air

     Contact:
     Tianfeng Lu
     University of Connecticut
     Email: tlu@engr.uconn.edu

     Reference:
     R. Sankaran, E.R. Hawkes, J.H. Chen, T.F. Lu, C.K. Law,
     "Structure of a spatially developing turbulent lean methaneair Bunsen flame,"
     Proceedings of the Combustion Institute 31 (2007) 12911298.


 GRI-MECH version 1.2 Thermodynamics released 11/16/94
 NASA Polynomial format for CHEMKIN-II
 CH2* symbol changed to CH2(S); only change from version 1.1
 see README file for disclaimer
"""

units(length='cm', time='s', quantity='mol', act_energy='cal/mol')

ideal_gas(name='gas',
          elements="O H C N Ar",
          species="""H2      H       O       O2      OH      H2O     HO2
                     CH2     CH2(S)  CH3     CH4     CO      CO2     HCO
                     CH2O    CH2OH   N2""",
          reactions='all',
          transport='Mix',
          initial_state=state(temperature=300.0, pressure=OneAtm))

#-------------------------------------------------------------------------------
# Species data
#-------------------------------------------------------------------------------

species(name='H2',
        atoms='H:2',
        thermo=(NASA([200.00, 1000.00],
                     [ 2.34433112E+00,  7.98052075E-03, -1.94781510E-05,
                       2.01572094E-08, -7.37611761E-12, -9.17935173E+02,
                       6.83010238E-01]),
                NASA([1000.00, 3500.00],
                     [ 3.33727920E+00, -4.94024731E-05,  4.99456778E-07,
                      -1.79566394E-10,  2.00255376E-14, -9.50158922E+02,
                      -3.20502331E+00])),
        transport=gas_transport(geom='linear',
                                diam=2.92,
                                well_depth=38.0,
                                polar=0.79,
                                rot_relax=280.0),
        note='TPIS78')

species(name='H',
        atoms='H:1',
        thermo=(NASA([200.00, 1000.00],
                     [ 2.50000000E+00,  7.05332819E-13, -1.99591964E-15,
                       2.30081632E-18, -9.27732332E-22,  2.54736599E+04,
                      -4.46682853E-01]),
                NASA([1000.00, 3500.00],
                     [ 2.50000001E+00, -2.30842973E-11,  1.61561948E-14,
                      -4.73515235E-18,  4.98197357E-22,  2.54736599E+04,
                      -4.46682914E-01])),
        transport=gas_transport(geom='atom',
                                diam=2.05,
                                well_depth=145.0),
        note='L7/88')

species(name='O',
        atoms='O:1',
        thermo=(NASA([200.00, 1000.00],
                     [ 3.16826710E+00, -3.27931884E-03,  6.64306396E-06,
                      -6.12806624E-09,  2.11265971E-12,  2.91222592E+04,
                       2.05193346E+00]),
                NASA([1000.00, 3500.00],
                     [ 2.56942078E+00, -8.59741137E-05,  4.19484589E-08,
                      -1.00177799E-11,  1.22833691E-15,  2.92175791E+04,
                       4.78433864E+00])),
        transport=gas_transport(geom='atom',
                                diam=2.75,
                                well_depth=80.0),
        note='L1/90')

species(name='O2',
        atoms='O:2',
        thermo=(NASA([200.00, 1000.00],
                     [ 3.78245636E+00, -2.99673416E-03,  9.84730201E-06,
                      -9.68129509E-09,  3.24372837E-12, -1.06394356E+03,
                       3.65767573E+00]),
                NASA([1000.00, 3500.00],
                     [ 3.28253784E+00,  1.48308754E-03, -7.57966669E-07,
                       2.09470555E-10, -2.16717794E-14, -1.08845772E+03,
                       5.45323129E+00])),
        transport=gas_transport(geom='linear',
                                diam=3.458,
                                well_depth=107.4,
                                polar=1.6,
                                rot_relax=3.8),
        note='TPIS89')

species(name='OH',
        atoms='H:1 O:1',
        thermo=(NASA([200.00, 1000.00],
                     [ 3.99201543E+00, -2.40131752E-03,  4.61793841E-06,
                      -3.88113333E-09,  1.36411470E-12,  3.61508056E+03,
                      -1.03925458E-01]),
                NASA([1000.00, 3500.00],
                     [ 3.09288767E+00,  5.48429716E-04,  1.26505228E-07,
                      -8.79461556E-11,  1.17412376E-14,  3.85865700E+03,
                       4.47669610E+00])),
        transport=gas_transport(geom='linear',
                                diam=2.75,
                                well_depth=80.0),
        note='RUS78')

species(name='H2O',
        atoms='H:2 O:1',
        thermo=(NASA([200.00, 1000.00],
                     [ 4.19864056E+00, -2.03643410E-03,  6.52040211E-06,
                      -5.48797062E-09,  1.77197817E-12, -3.02937267E+04,
                      -8.49032208E-01]),
                NASA([1000.00, 3500.00],
                     [ 3.03399249E+00,  2.17691804E-03, -1.64072518E-07,
                      -9.70419870E-11,  1.68200992E-14, -3.00042971E+04,
                       4.96677010E+00])),
        transport=gas_transport(geom='nonlinear',
                                diam=2.605,
                                well_depth=572.4,
                                dipole=1.844,
                                rot_relax=4.0),
        note='L8/89')

species(name='HO2',
        atoms='H:1 O:2',
        thermo=(NASA([200.00, 1000.00],
                     [ 4.30179801E+00, -4.74912051E-03,  2.11582891E-05,
                      -2.42763894E-08,  9.29225124E-12,  2.94808040E+02,
                       3.71666245E+00]),
                NASA([1000.00, 3500.00],
                     [ 4.01721090E+00,  2.23982013E-03, -6.33658150E-07,
                       1.14246370E-10, -1.07908535E-14,  1.11856713E+02,
                       3.78510215E+00])),
        transport=gas_transport(geom='nonlinear',
                                diam=3.458,
                                well_depth=107.4,
                                rot_relax=1.0),
        note='L5/89')

species(name='CH2',
        atoms='C:1 H:2',
        thermo=(NASA([200.00, 1000.00],
                     [ 3.76267867E+00,  9.68872143E-04,  2.79489841E-06,
                      -3.85091153E-09,  1.68741719E-12,  4.60040401E+04,
                       1.56253185E+00]),
                NASA([1000.00, 3500.00],
                     [ 2.87410113E+00,  3.65639292E-03, -1.40894597E-06,
                       2.60179549E-10, -1.87727567E-14,  4.62636040E+04,
                       6.17119324E+00])),
        transport=gas_transport(geom='linear',
                                diam=3.8,
                                well_depth=144.0),
        note='LS/93')

species(name='CH2(S)',
        atoms='C:1 H:2',
        thermo=(NASA([200.00, 1000.00],
                     [ 4.19860411E+00, -2.36661419E-03,  8.23296220E-06,
                      -6.68815981E-09,  1.94314737E-12,  5.04968163E+04,
                      -7.69118967E-01]),
                NASA([1000.00, 3500.00],
                     [ 2.29203842E+00,  4.65588637E-03, -2.01191947E-06,
                       4.17906000E-10, -3.39716365E-14,  5.09259997E+04,
                       8.62650169E+00])),
        transport=gas_transport(geom='linear',
                                diam=3.8,
                                well_depth=144.0),
        note='LS/93')

species(name='CH3',
        atoms='C:1 H:3',
        thermo=(NASA([200.00, 1000.00],
                     [ 3.67359040E+00,  2.01095175E-03,  5.73021856E-06,
                      -6.87117425E-09,  2.54385734E-12,  1.64449988E+04,
                       1.60456433E+00]),
                NASA([1000.00, 3500.00],
                     [ 2.28571772E+00,  7.23990037E-03, -2.98714348E-06,
                       5.95684644E-10, -4.67154394E-14,  1.67755843E+04,
                       8.48007179E+00])),
        transport=gas_transport(geom='linear',
                                diam=3.8,
                                well_depth=144.0),
        note='L11/89')

species(name='CH4',
        atoms='C:1 H:4',
        thermo=(NASA([200.00, 1000.00],
                     [ 5.14987613E+00, -1.36709788E-02,  4.91800599E-05,
                      -4.84743026E-08,  1.66693956E-11, -1.02466476E+04,
                      -4.64130376E+00]),
                NASA([1000.00, 3500.00],
                     [ 7.48514950E-02,  1.33909467E-02, -5.73285809E-06,
                       1.22292535E-09, -1.01815230E-13, -9.46834459E+03,
                       1.84373180E+01])),
        transport=gas_transport(geom='nonlinear',
                                diam=3.746,
                                well_depth=141.4,
                                polar=2.6,
                                rot_relax=13.0),
        note='L8/88')

species(name='CO',
        atoms='C:1 O:1',
        thermo=(NASA([200.00, 1000.00],
                     [ 3.57953347E+00, -6.10353680E-04,  1.01681433E-06,
                       9.07005884E-10, -9.04424499E-13, -1.43440860E+04,
                       3.50840928E+00]),
                NASA([1000.00, 3500.00],
                     [ 2.71518561E+00,  2.06252743E-03, -9.98825771E-07,
                       2.30053008E-10, -2.03647716E-14, -1.41518724E+04,
                       7.81868772E+00])),
        transport=gas_transport(geom='linear',
                                diam=3.65,
                                well_depth=98.1,
                                polar=1.95,
                                rot_relax=1.8),
        note='TPIS79')

species(name='CO2',
        atoms='C:1 O:2',
        thermo=(NASA([200.00, 1000.00],
                     [ 2.35677352E+00,  8.98459677E-03, -7.12356269E-06,
                       2.45919022E-09, -1.43699548E-13, -4.83719697E+04,
                       9.90105222E+00]),
                NASA([1000.00, 3500.00],
                     [ 3.85746029E+00,  4.41437026E-03, -2.21481404E-06,
                       5.23490188E-10, -4.72084164E-14, -4.87591660E+04,
                       2.27163806E+00])),
        transport=gas_transport(geom='linear',
                                diam=3.763,
                                well_depth=244.0,
                                polar=2.65,
                                rot_relax=2.1),
        note='L7/88')

species(name='HCO',
        atoms='C:1 H:1 O:1',
        thermo=(NASA([200.00, 1000.00],
                     [ 4.22118584E+00, -3.24392532E-03,  1.37799446E-05,
                      -1.33144093E-08,  4.33768865E-12,  3.83956496E+03,
                       3.39437243E+00]),
                NASA([1000.00, 3500.00],
                     [ 2.77217438E+00,  4.95695526E-03, -2.48445613E-06,
                       5.89161778E-10, -5.33508711E-14,  4.01191815E+03,
                       9.79834492E+00])),
        transport=gas_transport(geom='nonlinear',
                                diam=3.59,
                                well_depth=498.0),
        note='L12/89')

species(name='CH2O',
        atoms='C:1 H:2 O:1',
        thermo=(NASA([200.00, 1000.00],
                     [ 4.79372315E+00, -9.90833369E-03,  3.73220008E-05,
                      -3.79285261E-08,  1.31772652E-11, -1.43089567E+04,
                       6.02812900E-01]),
                NASA([1000.00, 3500.00],
                     [ 1.76069008E+00,  9.20000082E-03, -4.42258813E-06,
                       1.00641212E-09, -8.83855640E-14, -1.39958323E+04,
                       1.36563230E+01])),
        transport=gas_transport(geom='nonlinear',
                                diam=3.59,
                                well_depth=498.0,
                                rot_relax=2.0),
        note='L8/88')

species(name='CH2OH',
        atoms='C:1 H:3 O:1',
        thermo=(NASA([200.00, 1000.00],
                     [ 3.86388918E+00,  5.59672304E-03,  5.93271791E-06,
                      -1.04532012E-08,  4.36967278E-12, -3.19391367E+03,
                       5.47302243E+00]),
                NASA([1000.00, 3500.00],
                     [ 3.69266569E+00,  8.64576797E-03, -3.75101120E-06,
                       7.87234636E-10, -6.48554201E-14, -3.24250627E+03,
                       5.81043215E+00])),
        transport=gas_transport(geom='nonlinear',
                                diam=3.69,
                                well_depth=417.0,
                                dipole=1.7,
                                rot_relax=2.0),
        note='GUNL93')

species(name='N2',
        atoms='N:2',
        thermo=(NASA([300.00, 1000.00],
                     [ 3.29867700E+00,  1.40824040E-03, -3.96322200E-06,
                       5.64151500E-09, -2.44485400E-12, -1.02089990E+03,
                       3.95037200E+00]),
                NASA([1000.00, 5000.00],
                     [ 2.92664000E+00,  1.48797680E-03, -5.68476000E-07,
                       1.00970380E-10, -6.75335100E-15, -9.22797700E+02,
                       5.98052800E+00])),
        transport=gas_transport(geom='linear',
                                diam=3.621,
                                well_depth=97.53,
                                polar=1.76,
                                rot_relax=4.0),
        note='121286')

#-------------------------------------------------------------------------------
# Reaction data
#-------------------------------------------------------------------------------
# R1

# Reaction 1
three_body_reaction('2 O + M <=> O2 + M', [1.200000e+17, -1.0, 0.0],
                    efficiencies='CH4:2.0 CO:1.75 CO2:3.6 H2:2.4 H2O:15.4')
# R2

# Reaction 2
three_body_reaction('O + H + M <=> OH + M', [5.000000e+17, -1.0, 0.0],
                    efficiencies='CH4:2.0 CO:1.5 CO2:2.0 H2:2.0 H2O:6.0')
# R3

# Reaction 3
reaction('O + H2 <=> H + OH', [5.000000e+04, 2.67, 6290.0])
# R4

# Reaction 4
reaction('O + HO2 <=> OH + O2', [2.000000e+13, 0.0, 0.0])
# R5

# Reaction 5
reaction('O + CH2 <=> H + HCO', [8.000000e+13, 0.0, 0.0])
# R6

# Reaction 6
reaction('O + CH2(S) <=> H2 + CO', [1.500000e+13, 0.0, 0.0])
# R7

# Reaction 7
reaction('O + CH3 <=> H + CH2O', [8.430000e+13, 0.0, 0.0])
# R8

# Reaction 8
reaction('O + CH4 <=> OH + CH3', [1.020000e+09, 1.5, 8600.0])
# R9

# Reaction 9
three_body_reaction('O + CO + M <=> CO2 + M', [6.020000e+14, 0.0, 3000.0],
                    efficiencies='CH4:2.0 CO:1.5 CO2:3.5 H2:2.0 H2O:6.0 O2:6.0')
# R10

# Reaction 10
reaction('O + HCO <=> OH + CO', [3.000000e+13, 0.0, 0.0])
# R11

# Reaction 11
reaction('O + HCO <=> H + CO2', [3.000000e+13, 0.0, 0.0])
# R12

# Reaction 12
reaction('O + CH2O <=> OH + HCO', [3.900000e+13, 0.0, 3540.0])
# R13

# Reaction 13
reaction('O + CH2OH <=> OH + CH2O', [1.000000e+13, 0.0, 0.0])
# R14

# Reaction 14
reaction('O2 + CO <=> O + CO2', [2.500000e+12, 0.0, 47800.0])
# R15

# Reaction 15
reaction('O2 + CH2O <=> HO2 + HCO', [1.000000e+14, 0.0, 40000.0])
# R16

# Reaction 16
three_body_reaction('H + O2 + M <=> HO2 + M', [2.800000e+18, -0.86, 0.0],
                    efficiencies='CO:0.75 CO2:1.5 H2O:0.0 N2:0.0 O2:0.0')
# R17

# Reaction 17
reaction('H + 2 O2 <=> HO2 + O2', [3.000000e+20, -1.72, 0.0])
# R18

# Reaction 18
reaction('H + O2 + H2O <=> HO2 + H2O', [9.380000e+18, -0.76, 0.0])
# R19

# Reaction 19
reaction('H + O2 + N2 <=> HO2 + N2', [3.750000e+20, -1.72, 0.0])
# R20

# Reaction 20
reaction('H + O2 <=> O + OH', [8.300000e+13, 0.0, 14413.0])
# R21

# Reaction 21
three_body_reaction('2 H + M <=> H2 + M', [1.000000e+18, -1.0, 0.0],
                    efficiencies='CH4:2.0 CO2:0.0 H2:0.0 H2O:0.0')
# R22

# Reaction 22
reaction('2 H + H2 <=> 2 H2', [9.000000e+16, -0.6, 0.0])
# R23

# Reaction 23
reaction('2 H + H2O <=> H2 + H2O', [6.000000e+19, -1.25, 0.0])
# R24

# Reaction 24
reaction('2 H + CO2 <=> H2 + CO2', [5.500000e+20, -2.0, 0.0])
# R25

# Reaction 25
three_body_reaction('H + OH + M <=> H2O + M', [2.200000e+22, -2.0, 0.0],
                    efficiencies='CH4:2.0 H2:0.73 H2O:3.65')
# R26

# Reaction 26
reaction('H + HO2 <=> O + H2O', [3.970000e+12, 0.0, 671.0])
# R27

# Reaction 27
reaction('H + HO2 <=> O2 + H2', [2.800000e+13, 0.0, 1068.0])
# R28

# Reaction 28
reaction('H + HO2 <=> 2 OH', [1.340000e+14, 0.0, 635.0])
# R29

# Reaction 29
falloff_reaction('H + CH2 (+ M) <=> CH3 (+ M)',
                 kf=[2.500000e+16, -0.8, 0.0],
                 kf0=[3.200000e+27, -3.14, 1230.0],
                 efficiencies='CH4:2.0 CO:1.5 CO2:2.0 H2:2.0 H2O:6.0',
                 falloff=Troe(A=0.68, T3=78.0, T1=1995.0, T2=5590.0))
# R30

# Reaction 30
falloff_reaction('H + CH3 (+ M) <=> CH4 (+ M)',
                 kf=[1.270000e+16, -0.63, 383.0],
                 kf0=[2.477000e+33, -4.76, 2440.0],
                 efficiencies='CH4:2.0 CO:1.5 CO2:2.0 H2:2.0 H2O:6.0',
                 falloff=Troe(A=0.783, T3=74.0, T1=2941.0, T2=6964.0))
# R31

# Reaction 31
reaction('H + CH4 <=> CH3 + H2', [6.600000e+08, 1.62, 10840.0])
# R32

# Reaction 32
falloff_reaction('H + HCO (+ M) <=> CH2O (+ M)',
                 kf=[1.090000e+12, 0.48, -260.0],
                 kf0=[1.350000e+24, -2.57, 1425.0],
                 efficiencies='CH4:2.0 CO:1.5 CO2:2.0 H2:2.0 H2O:6.0',
                 falloff=Troe(A=0.7824, T3=271.0, T1=2755.0, T2=6570.0))
# R33

# Reaction 33
reaction('H + HCO <=> H2 + CO', [7.340000e+13, 0.0, 0.0])
# R34

# Reaction 34
falloff_reaction('H + CH2O (+ M) <=> CH2OH (+ M)',
                 kf=[5.400000e+11, 0.454, 3600.0],
                 kf0=[1.270000e+32, -4.82, 6530.0],
                 efficiencies='CH4:2.0 CO:1.5 CO2:2.0 H2:2.0 H2O:6.0',
                 falloff=Troe(A=0.7187, T3=103.0, T1=1291.0, T2=4160.0))
# R35

# Reaction 35
reaction('H + CH2O <=> HCO + H2', [2.300000e+10, 1.05, 3275.0])
# R36

# Reaction 36
reaction('H + CH2OH <=> H2 + CH2O', [2.000000e+13, 0.0, 0.0])
# R37

# Reaction 37
reaction('H + CH2OH <=> OH + CH3', [1.200000e+13, 0.0, 0.0])
# R38

# Reaction 38
reaction('H + CH2OH <=> CH2(S) + H2O', [6.000000e+12, 0.0, 0.0])
# R39

# Reaction 39
falloff_reaction('H2 + CO (+ M) <=> CH2O (+ M)',
                 kf=[4.300000e+07, 1.5, 79600.0],
                 kf0=[5.070000e+27, -3.42, 84350.0],
                 efficiencies='CH4:2.0 CO:1.5 CO2:2.0 H2:2.0 H2O:6.0',
                 falloff=Troe(A=0.932, T3=197.0, T1=1540.0, T2=10300.0))
# R40

# Reaction 40
reaction('OH + H2 <=> H + H2O', [2.160000e+08, 1.51, 3430.0])
# R41

# Reaction 41
reaction('2 OH <=> O + H2O', [3.570000e+04, 2.4, -2110.0])
# R42

# Reaction 42
reaction('OH + HO2 <=> O2 + H2O', [2.900000e+13, 0.0, -500.0])
# R43

# Reaction 43
reaction('OH + CH2 <=> H + CH2O', [2.000000e+13, 0.0, 0.0])
# R44

# Reaction 44
reaction('OH + CH2(S) <=> H + CH2O', [3.000000e+13, 0.0, 0.0])
# R45

# Reaction 45
reaction('OH + CH3 <=> CH2 + H2O', [5.600000e+07, 1.6, 5420.0])
# R46

# Reaction 46
reaction('OH + CH3 <=> CH2(S) + H2O', [2.501000e+13, 0.0, 0.0])
# R47

# Reaction 47
reaction('OH + CH4 <=> CH3 + H2O', [1.000000e+08, 1.6, 3120.0])
# R48

# Reaction 48
reaction('OH + CO <=> H + CO2', [4.760000e+07, 1.228, 70.0])
# R49

# Reaction 49
reaction('OH + HCO <=> H2O + CO', [5.000000e+13, 0.0, 0.0])
# R50

# Reaction 50
reaction('OH + CH2O <=> HCO + H2O', [3.430000e+09, 1.18, -447.0])
# R51

# Reaction 51
reaction('OH + CH2OH <=> H2O + CH2O', [5.000000e+12, 0.0, 0.0])
# R52

# Reaction 52
reaction('HO2 + CH2 <=> OH + CH2O', [2.000000e+13, 0.0, 0.0])
# R53

# Reaction 53
reaction('HO2 + CH3 <=> O2 + CH4', [1.000000e+12, 0.0, 0.0])
# R54

# Reaction 54
reaction('HO2 + CO <=> OH + CO2', [1.500000e+14, 0.0, 23600.0])
# R55

# Reaction 55
reaction('CH2 + O2 <=> OH + HCO', [1.320000e+13, 0.0, 1500.0])
# R56

# Reaction 56
reaction('CH2 + H2 <=> H + CH3', [5.000000e+05, 2.0, 7230.0])
# R57

# Reaction 57
reaction('CH2 + CH4 <=> 2 CH3', [2.460000e+06, 2.0, 8270.0])
# R58

# Reaction 58
reaction('CH2(S) + N2 <=> CH2 + N2', [1.500000e+13, 0.0, 600.0])
# R59

# Reaction 59
reaction('CH2(S) + O2 <=> H + OH + CO', [2.800000e+13, 0.0, 0.0])
# R60

# Reaction 60
reaction('CH2(S) + O2 <=> CO + H2O', [1.200000e+13, 0.0, 0.0])
# R61

# Reaction 61
reaction('CH2(S) + H2 <=> CH3 + H', [7.000000e+13, 0.0, 0.0])
# R62

# Reaction 62
reaction('CH2(S) + H2O <=> CH2 + H2O', [3.000000e+13, 0.0, 0.0])
# R63

# Reaction 63
reaction('CH2(S) + CH4 <=> 2 CH3', [1.600000e+13, 0.0, -570.0])
# R64

# Reaction 64
reaction('CH2(S) + CO <=> CH2 + CO', [9.000000e+12, 0.0, 0.0])
# R65

# Reaction 65
reaction('CH2(S) + CO2 <=> CH2 + CO2', [7.000000e+12, 0.0, 0.0])
# R66

# Reaction 66
reaction('CH2(S) + CO2 <=> CO + CH2O', [1.400000e+13, 0.0, 0.0])
# R67

# Reaction 67
reaction('CH3 + O2 <=> OH + CH2O', [3.600000e+10, 0.0, 8940.0])
# R68

# Reaction 68
reaction('CH3 + HCO <=> CH4 + CO', [2.648000e+13, 0.0, 0.0])
# R69

# Reaction 69
reaction('CH3 + CH2O <=> HCO + CH4', [3.320000e+03, 2.81, 5860.0])
# R70

# Reaction 70
reaction('HCO + H2O <=> H + CO + H2O', [2.244000e+18, -1.0, 17000.0])
# R71

# Reaction 71
three_body_reaction('HCO + M <=> H + CO + M', [1.870000e+17, -1.0, 17000.0],
                    efficiencies='CH4:2.0 CO:1.5 CO2:2.0 H2:2.0 H2O:0.0')
# R72

# Reaction 72
reaction('HCO + O2 <=> HO2 + CO', [7.600000e+12, 0.0, 400.0])
# R73

# Reaction 73
reaction('CH2OH + O2 <=> HO2 + CH2O', [1.800000e+13, 0.0, 900.0])
