!
!     A 17 species skeletal mechanism for lean atmospheric CH4/air
!
!     Contact: 
!     Tianfeng Lu
!     University of Connecticut
!     Email: tlu@engr.uconn.edu
!
!     Reference:
!     R. Sankaran, E.R. Hawkes, J.H. Chen, T.F. Lu, C.K. Law, 
!     "Structure of a spatially developing turbulent lean methane–air Bunsen flame," 
!     Proceedings of the Combustion Institute 31 (2007) 1291–1298.
!

ELEMENTS
O H C N AR 
END


SPECIES
H2               H                O                O2               
OH               H2O              HO2              CH2              
CH2(S)           CH3              CH4              CO               
CO2              HCO              CH2O             CH2OH            
N2               
END


REACTIONS
!R1
2O+M<=>O2+M                              1.200E+17   -1.000      0.00           
H2/ 2.40/ H2O/15.40/ CH4/ 2.00/ CO/ 1.75/ CO2/ 3.60/      
!R2
O+H+M<=>OH+M                             5.000E+17   -1.000      0.00           
H2/2.00/ H2O/6.00/ CH4/2.00/ CO/1.50/ CO2/2.00/             
!R3
O+H2<=>H+OH                              5.000E+04    2.670   6290.00           
!R4
O+HO2<=>OH+O2                            2.000E+13    0.000      0.00           
!R5
O+CH2<=>H+HCO                            8.000E+13    0.000      0.00           
!R6
O+CH2(S)<=>H2+CO                         1.500E+13    0.000      0.00           
!R7
O+CH3<=>H+CH2O                           8.430E+13    0.000      0.00           
!R8
O+CH4<=>OH+CH3                           1.020E+09    1.500   8600.00           
!R9
O+CO+M<=>CO2+M                           6.020E+14    0.000   3000.00           
H2/2.00/ O2/6.00/ H2O/6.00/ CH4/2.00/ CO/1.50/ CO2/3.50/    
!R10
O+HCO<=>OH+CO                            3.000E+13    0.000      0.00           
!R11
O+HCO<=>H+CO2                            3.000E+13    0.000      0.00           
!R12
O+CH2O<=>OH+HCO                          3.900E+13    0.000   3540.00           
!R13
O+CH2OH<=>OH+CH2O                        1.000E+13    0.000      0.00           
!R14
O2+CO<=>O+CO2                            2.500E+12    0.000  47800.00           
!R15
O2+CH2O<=>HO2+HCO                        1.000E+14    0.000  40000.00           
!R16
H+O2+M<=>HO2+M                           2.800E+18   -0.860      0.00           
O2/0.00/ H2O/0.00/ CO/0.75/ CO2/1.50/ N2/0.00/              
!R17
H+2O2<=>HO2+O2                           3.000E+20   -1.720      0.00           
!R18
H+O2+H2O<=>HO2+H2O                       9.380E+18   -0.760      0.00           
!R19
H+O2+N2<=>HO2+N2                         3.750E+20   -1.720      0.00           
!R20
H+O2<=>O+OH                              8.300E+13    0.000  14413.00           
!R21
2H+M<=>H2+M                              1.000E+18   -1.000      0.00           
H2/0.00/ H2O/0.00/ CH4/2.00/ CO2/0.00/                      
!R22
2H+H2<=>2H2                              9.000E+16   -0.600      0.00           
!R23
2H+H2O<=>H2+H2O                          6.000E+19   -1.250      0.00           
!R24
2H+CO2<=>H2+CO2                          5.500E+20   -2.000      0.00           
!R25
H+OH+M<=>H2O+M                           2.200E+22   -2.000      0.00           
H2/0.73/ H2O/3.65/ CH4/2.00/                                
!R26
H+HO2<=>O+H2O                            3.970E+12    0.000    671.00           
!R27
H+HO2<=>O2+H2                            2.800E+13    0.000   1068.00           
!R28
H+HO2<=>2OH                              1.340E+14    0.000    635.00           
!R29
H+CH2(+M)<=>CH3(+M)                      2.500E+16   -0.800      0.00           
     LOW  /  3.200E+27   -3.140   1230.00/                                      
     TROE/  0.6800   78.00  1995.00  5590.00 /                                  
H2/2.00/ H2O/6.00/ CH4/2.00/ CO/1.50/ CO2/2.00/             
!R30
H+CH3(+M)<=>CH4(+M)                      1.270E+16   -0.630    383.00           
     LOW  /  2.477E+33   -4.760   2440.00/                                      
     TROE/  0.7830   74.00  2941.00  6964.00 /                                  
H2/2.00/ H2O/6.00/ CH4/2.00/ CO/1.50/ CO2/2.00/             
!R31
H+CH4<=>CH3+H2                           6.600E+08    1.620  10840.00           
!R32
H+HCO(+M)<=>CH2O(+M)                     1.090E+12    0.480   -260.00           
     LOW  /  1.350E+24   -2.570   1425.00/                                      
     TROE/  0.7824  271.00  2755.00  6570.00 /                                  
H2/2.00/ H2O/6.00/ CH4/2.00/ CO/1.50/ CO2/2.00/             
!R33
H+HCO<=>H2+CO                            7.340E+13    0.000      0.00           
!R34
H+CH2O(+M)<=>CH2OH(+M)                   5.400E+11    0.454   3600.00           
     LOW  /  1.270E+32   -4.820   6530.00/                                      
     TROE/  0.7187  103.00  1291.00  4160.00 /                                  
H2/2.00/ H2O/6.00/ CH4/2.00/ CO/1.50/ CO2/2.00/                      
!R35
H+CH2O<=>HCO+H2                          2.300E+10    1.050   3275.00           
!R36
H+CH2OH<=>H2+CH2O                        2.000E+13    0.000      0.00           
!R37
H+CH2OH<=>OH+CH3                         1.200E+13    0.000      0.00           
!R38
H+CH2OH<=>CH2(S)+H2O                     6.000E+12    0.000      0.00           
!R39
H2+CO(+M)<=>CH2O(+M)                     4.300E+07    1.500  79600.00           
     LOW  /  5.070E+27   -3.420  84350.00/                                      
     TROE/  0.9320  197.00  1540.00 10300.00 /                                  
H2/2.00/ H2O/6.00/ CH4/2.00/ CO/1.50/ CO2/2.00/             
!R40
OH+H2<=>H+H2O                            2.160E+08    1.510   3430.00           
!R41
2OH<=>O+H2O                              3.570E+04    2.400  -2110.00           
!R42
OH+HO2<=>O2+H2O                          2.900E+13    0.000   -500.00           
!R43
OH+CH2<=>H+CH2O                          2.000E+13    0.000      0.00           
!R44
OH+CH2(S)<=>H+CH2O                       3.000E+13    0.000      0.00           
!R45
OH+CH3<=>CH2+H2O                         5.600E+07    1.600   5420.00           
!R46
OH+CH3<=>CH2(S)+H2O                      2.501E+13    0.000      0.00           
!R47
OH+CH4<=>CH3+H2O                         1.000E+08    1.600   3120.00           
!R48
OH+CO<=>H+CO2                            4.760E+07    1.228     70.00           
!R49
OH+HCO<=>H2O+CO                          5.000E+13    0.000      0.00           
!R50
OH+CH2O<=>HCO+H2O                        3.430E+09    1.180   -447.00           
!R51
OH+CH2OH<=>H2O+CH2O                      5.000E+12    0.000      0.00           
!R52
HO2+CH2<=>OH+CH2O                        2.000E+13    0.000      0.00           
!R53
HO2+CH3<=>O2+CH4                         1.000E+12    0.000      0.00           
!R54
HO2+CO<=>OH+CO2                          1.500E+14    0.000  23600.00           
!R55
CH2+O2<=>OH+HCO                          1.320E+13    0.000   1500.00           
!R56
CH2+H2<=>H+CH3                           5.000E+05    2.000   7230.00           
!R57
CH2+CH4<=>2CH3                           2.460E+06    2.000   8270.00           
!R58
CH2(S)+N2<=>CH2+N2                       1.500E+13    0.000    600.00           
!R59
CH2(S)+O2<=>H+OH+CO                      2.800E+13    0.000      0.00           
!R60
CH2(S)+O2<=>CO+H2O                       1.200E+13    0.000      0.00           
!R61
CH2(S)+H2<=>CH3+H                        7.000E+13    0.000      0.00           
!R62
CH2(S)+H2O<=>CH2+H2O                     3.000E+13    0.000      0.00           
!R63
CH2(S)+CH4<=>2CH3                        1.600E+13    0.000   -570.00           
!R64
CH2(S)+CO<=>CH2+CO                       9.000E+12    0.000      0.00           
!R65
CH2(S)+CO2<=>CH2+CO2                     7.000E+12    0.000      0.00           
!R66
CH2(S)+CO2<=>CO+CH2O                     1.400E+13    0.000      0.00           
!R67
CH3+O2<=>OH+CH2O                         3.600E+10    0.000   8940.00           
!R68
CH3+HCO<=>CH4+CO                         2.648E+13    0.000      0.00           
!R69
CH3+CH2O<=>HCO+CH4                       3.320E+03    2.810   5860.00           
!R70
HCO+H2O<=>H+CO+H2O                       2.244E+18   -1.000  17000.00           
!R71
HCO+M<=>H+CO+M                           1.870E+17   -1.000  17000.00           
H2/2.00/ H2O/0.00/ CH4/2.00/ CO/1.50/ CO2/2.00/                      
!R72
HCO+O2<=>HO2+CO                          7.600E+12    0.000    400.00           
!R73
CH2OH+O2<=>HO2+CH2O                      1.800E+13    0.000    900.00           
END
