ELEMENTS
O  H  C  N 
END
SPECIES
O2      H2O     CH4     CO      CO2     N2 
END
TRANS ALL
O2                 1   107.400     3.458     0.000     1.600     3.800          
H2O                2   572.400     2.605     1.844     0.000     4.000          
CH4                2   141.400     3.746     0.000     2.600    13.000          
CO                 1    98.100     3.650     0.000     1.950     1.800          
CO2                1   244.000     3.763     0.000     2.650     2.100          
N2                 1    97.530     3.621     0.000     1.760     4.000          
END
REACTIONS
2CH4 + 3O2  =>  2CO + 4H2O 1.545E+14    0.500   39895.
  FORD /CH4 1.0/
  FORD /O2 1.0/
2CO + O2  => 2CO2          1.991E+14    0.000   40000. 
  FORD /CO  1.0/
  FORD /O2  0.25/
2CO2 => 2CO + O2           2.500E+8     0.000   40000.
  FORD /CO2 1.0/
END
