! Nitramine Reaction Mechanism
! Built from 
! GRI-Mech Version 2.11 11/3/95  1st release 9/6/95  CHEMKIN-II format
! and
! R. Yetter's RDX decomposition mechanism
! Thermochemistry for RDX, RDXR, RDXRO, HMX, HMXR, and HMXRO from 
! B3LYP/6-31G* computation
! 3/14/99 Added Melius' NM decomposition steps
! Debc did significant corrections 1999-2001
! RPM redid thermo 4/01
!
ELEMENTS
O  H  C  N AR
END

SPECIES
H2      H       O       O2      OH      H2O     HO2     H2O2    
C       CH      CH2     CH2(S)  CH3     CH4     CO      CO2     
HCO     CH2O    CH2OH   CH3O    CH3OH   C2H     C2H2    C2H3    
C2H4    C2H5    C2H6    HCCO    CH2CO   HCCOH   N       NH      
NH2     NH3     NNH     NO      NO2     N2O     HNO     CN      
HCN     H2CN    HCNN    HCNO    HOCN    HNCO    NCO     N2      
HONO	NO3	HNO3	HNC	C2N2	NCN	CNO	H2CNH	
H2CNO	H2CNNO2	H2CNNO	AR	RDX	RDXR	RDXRO	HMX
HMXR	HMXRO   CH3NO2  CH3ONO  H2CNOH  HNNO2   N3      CH2N2
INT176  INT149  MNH     INT102  INT130  C2N2H4  INT175  INT128
C3N3H3  INT249  INT202  INT155  INT108  INT204  INT158  INT157
INT112  
END

THERMO
CH2N2                  0H   2C   1N   2    0G   398.150  3198.150 1000.00    0 1
 0.51455030E+01 0.51882216E-02-0.43146804E-06-0.44018625E-09 0.91390206E-13    2
 0.29753188E+05-0.23153563E+01 0.33633540E+01 0.65117939E-02 0.17011411E-05    3
-0.15475257E-08-0.47530263E-12 0.30552852E+05 0.81162014E+01                   4
CH3NO2                 0H   3C   1N   1O   2G   398.150  3198.150 1000.00    0 1
 0.83291626E+01 0.72418805E-02-0.63199423E-06-0.62497274E-09 0.13171801E-12    2
-0.13458342E+05-0.19856089E+02 0.29687536E+01 0.15056608E-01 0.17220456E-05    3
-0.73355984E-08 0.20339856E-11-0.11492773E+05 0.99418678E+01                   4
CH3ONO                 0H   3C   1N   1O   2G   398.150  3198.150 1000.00    0 1
 0.86788101E+01 0.70112268E-02-0.61667464E-06-0.60256639E-09 0.12714161E-12    2
-0.13458312E+05-0.19291721E+02 0.36135042E+01 0.14403785E-01 0.15878173E-05    3
-0.69279991E-08 0.19208318E-11-0.11601495E+05 0.88634214E+01                   4
H2CNOH                 0H   3C   1N   1O   1G   398.150  3198.150 1000.00    0 1
 0.65854897E+01 0.59578675E-02-0.45962523E-06-0.49691046E-09 0.10131434E-12    2
 0.51298212E+03-0.96178875E+01 0.32403002E+01 0.10834881E-01 0.11750849E-05    3
-0.50166120E-08 0.14544811E-11 0.17340533E+04 0.89637718E+01                   4
HCNN                   0H   1C   1N   2    0G   398.150  3198.150 1000.00    0 1
 0.59969440E+01 0.27514240E-02-0.26199248E-06-0.22883974E-09 0.49077706E-13    2
 0.51722305E+05-0.69764132E+01 0.35065591E+01 0.69581135E-02 0.16254941E-06    3
-0.37364503E-08 0.14158419E-11 0.52571379E+05 0.66351089E+01                   4
HMX                    0H   8C   4N   8O   8G   398.150  3998.150 1000.00    0 1
 0.44706383E+02 0.23770308E-01-0.23496857E-05-0.13309834E-08 0.24969374E-12    2
 0.96820439E+04-0.20686334E+03 0.14581933E+02 0.59781540E-01 0.14615893E-04    3
-0.22798060E-07-0.11355850E-11 0.21789510E+05-0.35763046E+02                   4
HMXR                   0H   8C   4N   7O   6G   398.150  3998.150 1000.00    0 1
 0.38878056E+02 0.21647334E-01-0.21212836E-05-0.12125710E-08 0.22683071E-12    2
 0.30438586E+05-0.17799850E+03 0.12213440E+02 0.53412564E-01 0.13135931E-04    3
-0.20364254E-07-0.97931515E-12 0.41164000E+05-0.26514259E+02                   4
HMXRO                  0H   8C   4N   7O   6G   398.150  3998.150 1000.00    0 1
 0.39544712E+02 0.21171039E-01-0.20781199E-05-0.11786606E-08 0.22048617E-12    2
 0.36074695E+05-0.17392920E+03 0.15418386E+02 0.48350275E-01 0.12997955E-04    3
-0.16363240E-07-0.27239196E-11 0.45971078E+05-0.36190086E+02                   4
HNNO2                  0H   1N   2O   2    0G   398.150  3198.150 1000.00    0 1
 0.80011063E+01 0.35049377E-02-0.34229581E-06-0.29787664E-09 0.64604511E-13    2
 0.24846146E+05-0.16031929E+02 0.29459860E+01 0.12876432E-01-0.27020960E-06    3
-0.83360536E-08 0.37143205E-11 0.26471094E+05 0.11247034E+02                   4
INT102                 0H   4C   2N   3O   2G   398.150  3998.150 1000.00    0 1
 0.16044462E+02 0.93667964E-02-0.90488243E-06-0.52000121E-09 0.96731861E-13    2
 0.32361076E+05-0.55634113E+02 0.68401098E+01 0.18715294E-01 0.58331821E-05    3
-0.52242224E-08-0.20812557E-11 0.36256816E+05-0.26576548E+01                   4
INT112                 0H   8C   4N   4    0G   398.150  3998.150 1000.00    0 1
 0.19335369E+02 0.16361102E-01-0.15040682E-05-0.91904501E-09 0.16850417E-12    2
 0.21596391E+05-0.82304161E+02 0.28165109E+01 0.34803927E-01 0.97383881E-05    3
-0.12657000E-07-0.12599608E-11 0.28366533E+05 0.12009777E+02                   4
INT128                 0H   4C   3N   4O   2G   398.150  3998.150 1000.00    0 1
 0.19032507E+02 0.11414523E-01-0.11163920E-05-0.64197125E-09 0.12005274E-12    2
 0.21575238E+05-0.75866379E+02 0.51400714E+01 0.27339393E-01 0.74159634E-05    3
-0.99115587E-08-0.11751491E-11 0.27237557E+05 0.33217759E+01                   4
INT130                 0H   6C   3N   4O   2G   398.150  3998.150 1000.00    0 1
 0.21207584E+02 0.13546489E-01-0.12868361E-05-0.75487661E-09 0.13972879E-12    2
 0.29387248E+05-0.85272827E+02 0.72636976E+01 0.28767824E-01 0.81470553E-05    3
-0.95111350E-08-0.18153533E-11 0.35155918E+05-0.54826398E+01                   4
INT149                 0H   5C   2N   4O   4G   398.150  3998.150 1000.00    0 1
 0.22911861E+02 0.12554726E-01-0.12095970E-05-0.69740375E-09 0.12966712E-12    2
 0.13643074E+05-0.92641632E+02 0.84008970E+01 0.29975595E-01 0.70339383E-05    3
-0.11403226E-07-0.31794974E-12 0.19461738E+05-0.10265574E+02                   4
INT155                 0H   5C   4N   5O   2G   398.150  3998.150 1000.00    0 1
 0.23967451E+02 0.13982470E-01-0.13661795E-05-0.78593698E-09 0.14692651E-12    2
 0.33886809E+05-0.10201315E+03 0.64268556E+01 0.34969430E-01 0.86417494E-05    3
-0.13600324E-07-0.49298440E-12 0.40929531E+05-0.24065053E+01                   4
INT157                 0H   7C   4N   5O   2G   398.150  3998.150 1000.00    0 1
 0.25130960E+02 0.16794715E-01-0.15998457E-05-0.94256780E-09 0.17475222E-12    2
 0.31103480E+05-0.10955926E+03 0.61618929E+01 0.38536143E-01 0.10328669E-04    3
-0.14147627E-07-0.13210635E-11 0.38826090E+05-0.14556240E+01                   4
INT158                 0H   8C   4N   5O   2G   398.150  3998.150 1000.00    0 1
 0.25891041E+02 0.18119086E-01-0.17123710E-05-0.10171450E-08 0.18810661E-12    2
 0.36048582E+05-0.11442697E+03 0.58715529E+01 0.41081753E-01 0.10973492E-04    3
-0.15198950E-07-0.12591343E-11 0.44193016E+05-0.35377997E+00                   4
INT175                 0H   5C   3N   5O   4G   398.150  3998.150 1000.00    0 1
 0.26238377E+02 0.14470278E-01-0.14225924E-05-0.81099277E-09 0.15188164E-12    2
 0.12805354E+05-0.11202892E+03 0.81263065E+01 0.36012959E-01 0.89327723E-05    3
-0.13701489E-07-0.74359220E-12 0.20096016E+05-0.91148539E+01                   4
INT176                 0H   6C   3N   5O   4G   398.150  3998.150 1000.00    0 1
 0.28356930E+02 0.14831034E-01-0.14388379E-05-0.82350271E-09 0.15345101E-12    2
 0.30532961E+05-0.11997063E+03 0.10649912E+02 0.36586761E-01 0.81168982E-05    3
-0.14374087E-07 0.99593382E-13 0.37575289E+05-0.19658175E+02                   4
INT202                 0H   6C   4N   6O   4G   398.150  3998.150 1000.00    0 1
 0.30980406E+02 0.17161839E-01-0.16849914E-05-0.96162212E-09 0.18001089E-12    2
 0.28378088E+05-0.13701329E+03 0.96034393E+01 0.42542826E-01 0.10587075E-04    3
-0.16140861E-07-0.91683681E-12 0.36988055E+05-0.15529493E+02                   4
INT204                 0H   8C   4N   6O   4G   398.150  3998.150 1000.00    0 1
 0.31880703E+02 0.20139541E-01-0.19316203E-05-0.11292645E-08 0.20981386E-12    2
 0.13743109E+05-0.14393575E+03 0.84929810E+01 0.47373105E-01 0.12283529E-04    3
-0.17709377E-07-0.12710644E-11 0.23216871E+05-0.10823289E+02                   4
INT249                 0H   7C   4N   7O   6G   398.150  3998.150 1000.00    0 1
 0.37908989E+02 0.20415032E-01-0.20125296E-05-0.11423885E-08 0.21410822E-12    2
 0.19050680E+05-0.17122765E+03 0.12570146E+02 0.50349418E-01 0.12598073E-04    3
-0.18811402E-07-0.13230237E-11 0.29276805E+05-0.27158884E+02                   4
MNH                    0H   3C   1N   2O   2G   398.150  3198.150 1000.00    0 1
 0.10707133E+02 0.75826407E-02-0.66847105E-06-0.63735317E-09 0.13404063E-12    2
 0.90753486E+04-0.21649641E+02 0.72187281E+01 0.11141565E-01 0.22735928E-05    3
-0.32446337E-08-0.27126286E-12 0.10536484E+05-0.16121284E+01                   4
RDX                    0H   6C   3N   6O   6G   398.150  3998.150 1000.00    0 1
 0.35198662E+02 0.16513389E-01-0.16455219E-05-0.92497116E-09 0.17403521E-12    2
 0.61398384E+04-0.15093977E+03 0.10033491E+02 0.50570846E-01 0.89112045E-05    3
-0.23550117E-07 0.33501700E-11 0.15778429E+05-0.96930895E+01                   4
RDXR                   0H   6C   3N   5O   4G   398.150  3998.150 1000.00    0 1
 0.27246832E+02 0.15691614E-01-0.15337993E-05-0.87972885E-09 0.16443612E-12    2
 0.26918238E+05-0.11802126E+03 0.83837366E+01 0.37706967E-01 0.97017864E-05    3
-0.13944589E-07-0.11585450E-11 0.34559273E+05-0.10667083E+02                   4
RDXRO                  0H   6C   3N   5O   4G   398.150  3998.150 1000.00    0 1
 0.27900957E+02 0.15210920E-01-0.14878643E-05-0.84580126E-09 0.15801406E-12    2
 0.32908875E+05-0.11538005E+03 0.11336816E+02 0.33283338E-01 0.94068582E-05    3
-0.10595953E-07-0.24948340E-11 0.39773340E+05-0.20565557E+02                   4
C3N3H3                 0H   3C   3N   3    0G   398.150  3998.150 1000.00    0 1
 0.12021729E+02 0.82135582E-02-0.79439110E-06-0.46379786E-09 0.86445804E-13    2
 0.20243127E+05-0.40457146E+02 0.23989418E+01 0.18787378E-01 0.55962591E-05    3
-0.64754215E-08-0.12436151E-11 0.24217709E+05 0.14581957E+02                   4
C2N2H4                 0H   4C   2N   2    0G   398.150  3998.150 1000.00    0 1
 0.94987774E+01 0.76331249E-02-0.70427410E-06-0.42304293E-09 0.77518029E-13    2
 0.19341332E+05-0.25791096E+02 0.42091556E+01 0.11219762E-01 0.49715909E-05    3
-0.13762028E-08-0.29422023E-11 0.21787914E+05 0.53964043E+01                   4
INT108                 0H   4C   4N   4    0G   398.150  3998.150 1000.00    0 1
 0.16982298E+02 0.10778883E-01-0.10451441E-05-0.60821487E-09 0.11345596E-12    2
 0.41427141E+05-0.66920815E+02 0.34983022E+01 0.26850920E-01 0.67837286E-05    3
-0.10546097E-07-0.36557530E-12 0.46845777E+05 0.96692390E+01                   4
END

REACTIONS
! These are from GRI:
2O+M<=>O2+M                              1.200E+17   -1.000        .00
H2/ 2.40/ H2O/15.40/ CH4/ 2.00/ CO/ 1.75/ CO2/ 3.60/ C2H6/ 3.00/ AR/  .83/ 
O+H+M<=>OH+M                             5.000E+17   -1.000        .00
H2/2.00/ H2O/6.00/ CH4/2.00/ CO/1.50/ CO2/2.00/ C2H6/3.00/ AR/ .70/ 
O+H2<=>H+OH                              5.000E+04    2.670    6290.00
O+HO2<=>OH+O2                            2.000E+13     .000        .00
O+H2O2<=>OH+HO2                          9.630E+06    2.000    4000.00
O+CH<=>H+CO                              5.700E+13     .000        .00
O+CH2<=>H+HCO                            8.000E+13     .000        .00
O+CH2(S)<=>H2+CO                         1.500E+13     .000        .00
O+CH2(S)<=>H+HCO                         1.500E+13     .000        .00
O+CH3<=>H+CH2O                           8.430E+13     .000        .00
O+CH4<=>OH+CH3                           1.020E+09    1.500    8600.00
O+CO+M<=>CO2+M                           6.020E+14     .000    3000.00
H2/2.00/ O2/6.00/ H2O/6.00/ CH4/2.00/ CO/1.50/ CO2/3.50/ C2H6/3.00/ AR/ .50/ 
O+HCO<=>OH+CO                            3.000E+13     .000        .00
O+HCO<=>H+CO2                            3.000E+13     .000        .00
O+CH2O<=>OH+HCO                          3.900E+13     .000    3540.00
O+CH2OH<=>OH+CH2O                        1.000E+13     .000        .00
O+CH3O<=>OH+CH2O                         1.000E+13     .000        .00
O+CH3OH<=>OH+CH2OH                       3.880E+05    2.500    3100.00
O+CH3OH<=>OH+CH3O                        1.300E+05    2.500    5000.00
O+C2H<=>CH+CO                            5.000E+13     .000        .00
O+C2H2<=>H+HCCO                          1.020E+07    2.000    1900.00
O+C2H2<=>OH+C2H                          4.600E+19   -1.410   28950.00
O+C2H2<=>CO+CH2                          1.020E+07    2.000    1900.00
O+C2H3<=>H+CH2CO                         3.000E+13     .000        .00
O+C2H4<=>CH3+HCO                         1.920E+07    1.830     220.00
O+C2H5<=>CH3+CH2O                        1.320E+14     .000        .00
O+C2H6<=>OH+C2H5                         8.980E+07    1.920    5690.00
O+HCCO<=>H+2CO                           1.000E+14     .000        .00
O+CH2CO<=>OH+HCCO                        1.000E+13     .000    8000.00
O+CH2CO<=>CH2+CO2                        1.750E+12     .000    1350.00
O2+CO<=>O+CO2                            2.500E+12     .000   47800.00
O2+CH2O<=>HO2+HCO                        1.000E+14     .000   40000.00
!H+O2+M<=>HO2+M                           2.800E+18    -.860        .00
!O2/ .00/ H2O/ .00/ CO/ .75/ CO2/1.50/ C2H6/1.50/ N2/ .00/ AR/ .00/ 
H+2O2<=>HO2+O2                           3.000E+20   -1.720        .00
H+O2+H2O<=>HO2+H2O                       9.380E+18    -.760        .00
H+O2+N2<=>HO2+N2                         3.750E+20   -1.720        .00
H+O2<=>O+OH                              8.300E+13     .000   14413.00
2H+M<=>H2+M                              1.000E+18   -1.000        .00
H2/ .00/ H2O/ .00/ CH4/2.00/ CO2/ .00/ C2H6/3.00/ AR/ .63/ 
2H+H2<=>2H2                              9.000E+16    -.600        .00
2H+H2O<=>H2+H2O                          6.000E+19   -1.250        .00
2H+CO2<=>H2+CO2                          5.500E+20   -2.000        .00
H+OH+M<=>H2O+M                           2.200E+22   -2.000        .00
H2/ .73/ H2O/3.65/ CH4/2.00/ C2H6/3.00/ AR/ .38/ 
H+HO2<=>O+H2O                            3.970E+12     .000     671.00
H+HO2<=>O2+H2                            2.800E+13     .000    1068.00
H+HO2<=>2OH                              1.340E+14     .000     635.00
H+H2O2<=>HO2+H2                          1.210E+07    2.000    5200.00
H+H2O2<=>OH+H2O                          1.000E+13     .000    3600.00
H+CH<=>C+H2                              1.100E+14     .000        .00
H+CH2(+M)<=>CH3(+M)                      2.500E+16    -.800        .00
     LOW  /  3.200E+27   -3.140   1230.00/
     TROE/   .6800   78.00  1995.00  5590.00 /
H2/2.00/ H2O/6.00/ CH4/2.00/ CO/1.50/ CO2/2.00/ C2H6/3.00/ AR/ .70/ 
H+CH2(S)<=>CH+H2                         3.000E+13     .000        .00
H+CH3(+M)<=>CH4(+M)                      1.270E+16    -.630     383.00
     LOW  /  2.477E+33   -4.760   2440.00/
     TROE/   .7830   74.00  2941.00  6964.00 /
H2/2.00/ H2O/6.00/ CH4/2.00/ CO/1.50/ CO2/2.00/ C2H6/3.00/ AR/ .70/ 
H+CH4<=>CH3+H2                           6.600E+08    1.620   10840.00
H+HCO(+M)<=>CH2O(+M)                     1.090E+12     .480    -260.00
     LOW  /  1.350E+24   -2.570   1425.00/
     TROE/   .7824  271.00  2755.00  6570.00 /
H2/2.00/ H2O/6.00/ CH4/2.00/ CO/1.50/ CO2/2.00/ C2H6/3.00/ AR/ .70/ 
H+HCO<=>H2+CO                            7.340E+13     .000        .00
H+CH2O(+M)<=>CH2OH(+M)                   5.400E+11     .454    3600.00
     LOW  /  1.270E+32   -4.820   6530.00/
     TROE/   .7187  103.00  1291.00  4160.00 /
H2/2.00/ H2O/6.00/ CH4/2.00/ CO/1.50/ CO2/2.00/ C2H6/3.00/ 
H+CH2O(+M)<=>CH3O(+M)                    5.400E+11     .454    2600.00
     LOW  /  2.200E+30   -4.800   5560.00/
     TROE/   .7580   94.00  1555.00  4200.00 /
H2/2.00/ H2O/6.00/ CH4/2.00/ CO/1.50/ CO2/2.00/ C2H6/3.00/ 
H+CH2O<=>HCO+H2                          2.300E+10    1.050    3275.00
H+CH2OH(+M)<=>CH3OH(+M)                  1.800E+13     .000        .00
     LOW  /  3.000E+31   -4.800   3300.00/
     TROE/   .7679  338.00  1812.00  5081.00 /
H2/2.00/ H2O/6.00/ CH4/2.00/ CO/1.50/ CO2/2.00/ C2H6/3.00/ 
H+CH2OH<=>H2+CH2O                        2.000E+13     .000        .00
H+CH2OH<=>OH+CH3                         1.200E+13     .000        .00
H+CH2OH<=>CH2(S)+H2O                     6.000E+12     .000        .00
H+CH3O(+M)<=>CH3OH(+M)                   5.000E+13     .000        .00
     LOW  /  8.600E+28   -4.000   3025.00/
     TROE/   .8902  144.00  2838.00 45569.00 /
H2/2.00/ H2O/6.00/ CH4/2.00/ CO/1.50/ CO2/2.00/ C2H6/3.00/ 
H+CH3O<=>H+CH2OH                         3.400E+06    1.600        .00
H+CH3O<=>H2+CH2O                         2.000E+13     .000        .00
H+CH3O<=>OH+CH3                          3.200E+13     .000        .00
H+CH3O<=>CH2(S)+H2O                      1.600E+13     .000        .00
H+CH3OH<=>CH2OH+H2                       1.700E+07    2.100    4870.00
H+CH3OH<=>CH3O+H2                        4.200E+06    2.100    4870.00
H+C2H(+M)<=>C2H2(+M)                     1.000E+17   -1.000        .00
     LOW  /  3.750E+33   -4.800   1900.00/
     TROE/   .6464  132.00  1315.00  5566.00 /
H2/2.00/ H2O/6.00/ CH4/2.00/ CO/1.50/ CO2/2.00/ C2H6/3.00/ AR/ .70/ 
H+C2H2(+M)<=>C2H3(+M)                    5.600E+12     .000    2400.00
     LOW  /  3.800E+40   -7.270   7220.00/
     TROE/   .7507   98.50  1302.00  4167.00 /
H2/2.00/ H2O/6.00/ CH4/2.00/ CO/1.50/ CO2/2.00/ C2H6/3.00/ AR/ .70/ 
H+C2H3(+M)<=>C2H4(+M)                    6.080E+12     .270     280.00
     LOW  /  1.400E+30   -3.860   3320.00/
     TROE/   .7820  207.50  2663.00  6095.00 /
H2/2.00/ H2O/6.00/ CH4/2.00/ CO/1.50/ CO2/2.00/ C2H6/3.00/ AR/ .70/ 
H+C2H3<=>H2+C2H2                         3.000E+13     .000        .00
H+C2H4(+M)<=>C2H5(+M)                    1.080E+12     .454    1820.00
     LOW  /  1.200E+42   -7.620   6970.00/
     TROE/   .9753  210.00   984.00  4374.00 /
H2/2.00/ H2O/6.00/ CH4/2.00/ CO/1.50/ CO2/2.00/ C2H6/3.00/ AR/ .70/ 
H+C2H4<=>C2H3+H2                         1.325E+06    2.530   12240.00
H+C2H5(+M)<=>C2H6(+M)                    5.210E+17    -.990    1580.00
     LOW  /  1.990E+41   -7.080   6685.00/
     TROE/   .8422  125.00  2219.00  6882.00 /
H2/2.00/ H2O/6.00/ CH4/2.00/ CO/1.50/ CO2/2.00/ C2H6/3.00/ AR/ .70/ 
H+C2H5<=>H2+C2H4                         2.000E+12     .000        .00
H+C2H6<=>C2H5+H2                         1.150E+08    1.900    7530.00
H+HCCO<=>CH2(S)+CO                       1.000E+14     .000        .00
H+CH2CO<=>HCCO+H2                        5.000E+13     .000    8000.00
H+CH2CO<=>CH3+CO                         1.130E+13     .000    3428.00
H+HCCOH<=>H+CH2CO                        1.000E+13     .000        .00
H2+CO(+M)<=>CH2O(+M)                     4.300E+07    1.500   79600.00
     LOW  /  5.070E+27   -3.420  84350.00/
     TROE/   .9320  197.00  1540.00 10300.00 /
H2/2.00/ H2O/6.00/ CH4/2.00/ CO/1.50/ CO2/2.00/ C2H6/3.00/ AR/ .70/ 
OH+H2<=>H+H2O                            2.160E+08    1.510    3430.00
2OH(+M)<=>H2O2(+M)                       7.400E+13    -.370        .00
     LOW  /  2.300E+18    -.900  -1700.00/
     TROE/   .7346   94.00  1756.00  5182.00 /
H2/2.00/ H2O/6.00/ CH4/2.00/ CO/1.50/ CO2/2.00/ C2H6/3.00/ AR/ .70/ 
2OH<=>O+H2O                              3.570E+04    2.400   -2110.00
OH+HO2<=>O2+H2O                          2.900E+13     .000    -500.00
OH+H2O2<=>HO2+H2O                        1.750E+12     .000     320.00
 DUPLICATE
OH+H2O2<=>HO2+H2O                        5.800E+14     .000    9560.00
 DUPLICATE
OH+C<=>H+CO                              5.000E+13     .000        .00
OH+CH<=>H+HCO                            3.000E+13     .000        .00
OH+CH2<=>H+CH2O                          2.000E+13     .000        .00
OH+CH2<=>CH+H2O                          1.130E+07    2.000    3000.00
OH+CH2(S)<=>H+CH2O                       3.000E+13     .000        .00
OH+CH3(+M)<=>CH3OH(+M)                   6.300E+13     .000        .00
     LOW  /  2.700E+38   -6.300   3100.00/
     TROE/   .2105   83.50  5398.00  8370.00 /
H2/2.00/ H2O/6.00/ CH4/2.00/ CO/1.50/ CO2/2.00/ C2H6/3.00/ 
OH+CH3<=>CH2+H2O                         5.600E+07    1.600    5420.00
OH+CH3<=>CH2(S)+H2O                      2.501E+13     .000        .00
OH+CH4<=>CH3+H2O                         1.000E+08    1.600    3120.00
OH+CO<=>H+CO2                            4.760E+07    1.228      70.00
OH+HCO<=>H2O+CO                          5.000E+13     .000        .00
OH+CH2O<=>HCO+H2O                        3.430E+09    1.180    -447.00
OH+CH2OH<=>H2O+CH2O                      5.000E+12     .000        .00
OH+CH3O<=>H2O+CH2O                       5.000E+12     .000        .00
OH+CH3OH<=>CH2OH+H2O                     1.440E+06    2.000    -840.00
OH+CH3OH<=>CH3O+H2O                      6.300E+06    2.000    1500.00
OH+C2H<=>H+HCCO                          2.000E+13     .000        .00
OH+C2H2<=>H+CH2CO                        2.180E-04    4.500   -1000.00
OH+C2H2<=>H+HCCOH                        5.040E+05    2.300   13500.00
OH+C2H2<=>C2H+H2O                        3.370E+07    2.000   14000.00
OH+C2H2<=>CH3+CO                         4.830E-04    4.000   -2000.00
OH+C2H3<=>H2O+C2H2                       5.000E+12     .000        .00
OH+C2H4<=>C2H3+H2O                       3.600E+06    2.000    2500.00
OH+C2H6<=>C2H5+H2O                       3.540E+06    2.120     870.00
OH+CH2CO<=>HCCO+H2O                      7.500E+12     .000    2000.00
2HO2<=>O2+H2O2                           1.300E+11     .000   -1630.00
 DUPLICATE
2HO2<=>O2+H2O2                           4.200E+14     .000   12000.00
 DUPLICATE
HO2+CH2<=>OH+CH2O                        2.000E+13     .000        .00
HO2+CH3<=>O2+CH4                         1.000E+12     .000        .00
HO2+CH3<=>OH+CH3O                        2.000E+13     .000        .00
HO2+CO<=>OH+CO2                          1.500E+14     .000   23600.00
HO2+CH2O<=>HCO+H2O2                      1.000E+12     .000    8000.00
C+O2<=>O+CO                              5.800E+13     .000     576.00
C+CH2<=>H+C2H                            5.000E+13     .000        .00
C+CH3<=>H+C2H2                           5.000E+13     .000        .00
CH+O2<=>O+HCO                            3.300E+13     .000        .00
CH+H2<=>H+CH2                            1.107E+08    1.790    1670.00
CH+H2O<=>H+CH2O                          1.713E+13     .000    -755.00
CH+CH2<=>H+C2H2                          4.000E+13     .000        .00
CH+CH3<=>H+C2H3                          3.000E+13     .000        .00
CH+CH4<=>H+C2H4                          6.000E+13     .000        .00
CH+CO(+M)<=>HCCO(+M)                     5.000E+13     .000        .00
     LOW  /  2.690E+28   -3.740   1936.00/
     TROE/   .5757  237.00  1652.00  5069.00 /
H2/2.00/ H2O/6.00/ CH4/2.00/ CO/1.50/ CO2/2.00/ C2H6/3.00/ AR/ .70/ 
CH+CO2<=>HCO+CO                          3.400E+12     .000     690.00
CH+CH2O<=>H+CH2CO                        9.460E+13     .000    -515.00
CH+HCCO<=>CO+C2H2                        5.000E+13     .000        .00
CH2+O2<=>OH+HCO                          1.320E+13     .000    1500.00
CH2+H2<=>H+CH3                           5.000E+05    2.000    7230.00
2CH2<=>H2+C2H2                           3.200E+13     .000        .00
CH2+CH3<=>H+C2H4                         4.000E+13     .000        .00
CH2+CH4<=>2CH3                           2.460E+06    2.000    8270.00
CH2+CO(+M)<=>CH2CO(+M)                   8.100E+11     .500    4510.00
     LOW  /  2.690E+33   -5.110   7095.00/
     TROE/   .5907  275.00  1226.00  5185.00 /
H2/2.00/ H2O/6.00/ CH4/2.00/ CO/1.50/ CO2/2.00/ C2H6/3.00/ AR/ .70/ 
CH2+HCCO<=>C2H3+CO                       3.000E+13     .000        .00
CH2(S)+N2<=>CH2+N2                       1.500E+13     .000     600.00
CH2(S)+AR<=>CH2+AR                       9.000E+12     .000     600.00
CH2(S)+O2<=>H+OH+CO                      2.800E+13     .000        .00
CH2(S)+O2<=>CO+H2O                       1.200E+13     .000        .00
CH2(S)+H2<=>CH3+H                        7.000E+13     .000        .00
CH2(S)+H2O(+M)<=>CH3OH(+M)               2.000E+13     .000        .00
     LOW  /  2.700E+38   -6.300   3100.00/
     TROE/   .1507  134.00  2383.00  7265.00 /
H2/2.00/ H2O/6.00/ CH4/2.00/ CO/1.50/ CO2/2.00/ C2H6/3.00/ 
CH2(S)+H2O<=>CH2+H2O                     3.000E+13     .000        .00
CH2(S)+CH3<=>H+C2H4                      1.200E+13     .000    -570.00
CH2(S)+CH4<=>2CH3                        1.600E+13     .000    -570.00
CH2(S)+CO<=>CH2+CO                       9.000E+12     .000        .00
CH2(S)+CO2<=>CH2+CO2                     7.000E+12     .000        .00
CH2(S)+CO2<=>CO+CH2O                     1.400E+13     .000        .00
CH2(S)+C2H6<=>CH3+C2H5                   4.000E+13     .000    -550.00
CH3+O2<=>O+CH3O                          2.675E+13     .000   28800.00
CH3+O2<=>OH+CH2O                         3.600E+10     .000    8940.00
CH3+H2O2<=>HO2+CH4                       2.450E+04    2.470    5180.00
2CH3(+M)<=>C2H6(+M)                      2.120E+16    -.970     620.00
     LOW  /  1.770E+50   -9.670   6220.00/
     TROE/   .5325  151.00  1038.00  4970.00 /
H2/2.00/ H2O/6.00/ CH4/2.00/ CO/1.50/ CO2/2.00/ C2H6/3.00/ AR/ .70/ 
2CH3<=>H+C2H5                            4.990E+12     .100   10600.00
CH3+HCO<=>CH4+CO                         2.648E+13     .000        .00
CH3+CH2O<=>HCO+CH4                       3.320E+03    2.810    5860.00
CH3+CH3OH<=>CH2OH+CH4                    3.000E+07    1.500    9940.00
CH3+CH3OH<=>CH3O+CH4                     1.000E+07    1.500    9940.00
CH3+C2H4<=>C2H3+CH4                      2.270E+05    2.000    9200.00
CH3+C2H6<=>C2H5+CH4                      6.140E+06    1.740   10450.00
HCO+H2O<=>H+CO+H2O                       2.244E+18   -1.000   17000.00
HCO+M<=>H+CO+M                           1.870E+17   -1.000   17000.00
H2/2.00/ H2O/ .00/ CH4/2.00/ CO/1.50/ CO2/2.00/ C2H6/3.00/ 
HCO+O2<=>HO2+CO                          7.600E+12     .000     400.00
CH2OH+O2<=>HO2+CH2O                      1.800E+13     .000     900.00
CH3O+O2<=>HO2+CH2O                       4.280E-13    7.600   -3530.00
C2H+O2<=>HCO+CO                          5.000E+13     .000    1500.00
C2H+H2<=>H+C2H2                          4.070E+05    2.400     200.00
C2H3+O2<=>HCO+CH2O                       3.980E+12     .000    -240.00
C2H4(+M)<=>H2+C2H2(+M)                   8.000E+12     .440   88770.00
     LOW  /  7.000E+50   -9.310  99860.00/
     TROE/   .7345  180.00  1035.00  5417.00 /
H2/2.00/ H2O/6.00/ CH4/2.00/ CO/1.50/ CO2/2.00/ C2H6/3.00/ AR/ .70/ 
C2H5+O2<=>HO2+C2H4                       8.400E+11     .000    3875.00
HCCO+O2<=>OH+2CO                         1.600E+12     .000     854.00
2HCCO<=>2CO+C2H2                         1.000E+13     .000        .00
N+NO<=>N2+O                              3.500E+13     .000     330.00
N+O2<=>NO+O                              2.650E+12     .000    6400.00
N+OH<=>NO+H                              7.333E+13     .000    1120.00
N2O+O<=>N2+O2                            1.400E+12     .000   10810.00
N2O+O<=>2NO                              2.900E+13     .000   23150.00
N2O+H<=>N2+OH                            4.400E+14     .000   18880.00
N2O+OH<=>N2+HO2                          2.000E+12     .000   21060.00
N2O(+M)<=>N2+O(+M)                       1.300E+11     .000   59620.00
     LOW  /  6.200E+14     .000  56100.00/
H2/2.00/ H2O/6.00/ CH4/2.00/ CO/1.50/ CO2/2.00/ C2H6/3.00/ AR/ .70/ 
HO2+NO<=>NO2+OH                          2.110E+12     .000    -480.00
NO2+O<=>NO+O2                            3.900E+12     .000    -240.00
NO2+H<=>NO+OH                            1.320E+14     .000     360.00
NH+O<=>NO+H                              5.000E+13     .000        .00
NH+H<=>N+H2                              3.200E+13     .000     330.00
NH+OH<=>HNO+H                            2.000E+13     .000        .00
NH+OH<=>N+H2O                            2.000E+09    1.200        .00
NH+O2<=>HNO+O                            4.610E+05    2.000    6500.00
NH+O2<=>NO+OH                            1.280E+06    1.500     100.00
NH+N<=>N2+H                              1.500E+13     .000        .00
NH+H2O<=>HNO+H2                          2.000E+13     .000   13850.00
NH+NO<=>N2+OH                            2.160E+13    -.230        .00
NH+NO<=>N2O+H                            4.160E+14    -.450        .00
NH2+O<=>OH+NH                            7.000E+12     .000        .00
NH2+O<=>H+HNO                            4.600E+13     .000        .00
NH2+H<=>NH+H2                            4.000E+13     .000    3650.00
NH2+OH<=>NH+H2O                          9.000E+07    1.500    -460.00
NNH<=>N2+H                               3.300E+08     .000        .00 !dup 1b
NNH+M<=>N2+H+M                           1.300E+14    -.110    4980.00 !dup 1a
H2/2.00/ H2O/6.00/ CH4/2.00/ CO/1.50/ CO2/2.00/ C2H6/3.00/ AR/ .70/    !dup 1a
NNH+O2<=>HO2+N2                          5.000E+12     .000        .00
NNH+O<=>OH+N2                            2.500E+13     .000        .00
NNH+O<=>NH+NO                            7.000E+13     .000        .00
NNH+H<=>H2+N2                            5.000E+13     .000        .00
NNH+OH<=>H2O+N2                          2.000E+13     .000        .00
NNH+CH3<=>CH4+N2                         2.500E+13     .000        .00
HNO+O<=>NO+OH                            2.500E+13     .000        .00
HNO+H<=>H2+NO                            4.500E+11     .720     660.00
HNO+OH<=>NO+H2O                          1.300E+07    1.900    -950.00
HNO+O2<=>HO2+NO                          1.000E+13     .000   13000.00
CN+O<=>CO+N                              7.700E+13     .000        .00
CN+OH<=>NCO+H                            4.000E+13     .000        .00
CN+H2O<=>HCN+OH                          8.000E+12     .000    7460.00
CN+O2<=>NCO+O                            6.140E+12     .000    -440.00
CN+H2<=>HCN+H                            2.100E+13     .000    4710.00
NCO+O<=>NO+CO                            2.350E+13     .000        .00
NCO+H<=>NH+CO                            5.400E+13     .000        .00