ELEM H C O N AR
END
SPECIES
H         H2        O         O2        OH        HO2       H2O
H2O2      CO        CO2       HCO       CH3       CH4       C2H6
CH2O      C2H5      CH2       CH3O      CH2OH     CH        C2H2
C2H4      C2H3      CH3OH     CH3HCO    C2H       CH2CO     HCCO
C2H4O     ! ethylene oxide
SCH2      ! CH2(1) - singlet
C2        C2O       CH3CO     CH3CO3    CH3CO3H   C3H6OH    O2C3H6OH
CH3O2     CH3O2H    C2H5O2H   C2H5O2    CH3CO2    CH3CO2H   C2H5OH
C2H5O     ! CH3-CH2-O(.)
SC2H5O    ! CH3-CH(.)-OH
PC2H5O    ! CH2(.)-CH2-OH
CH2HCO    CN        H2CN      N         NH        HCN       NO 
HCNO      C         HOCN      HNCO      NCO       N2O       NH2 
HNO       NO2       C2N2      NNH       NH3       N2H2      HONO 
NO3       HNO3      N2H3      N2H4      CNN       HCNN      N2O4 
N2O3
CH2CHOW   ! CH2CHO exited
C2H3O     ! CH2-CH(.)
          ! |__O__|
CH3HCOW   ! CH3HCO exited
C3H5O2    C3H5O2H   C3H5O     NC3H7O2   NC3H7O2H  IC3H7O2   IC3H7O2H
IC3H7O    NC3H7O    C3H6      C3H8      IC3H7     NC3H7     IC4H7
C3H2      C4H2      C4H       C6H9      C4H6      H2C4O 
C4H4      ! 1-buten-3yn
IC4H5     ! 1,3-butadien-2-yl (two mesomers)
NC4H5     ! 1,3-butadienyl
C6H5      ! phenyl
C3H3      ! propargyl
SC3H5     ! 1-propenyl or 2-methylvinyl or H3C-CH=(.)CH
PC3H4     ! propyne or methylacetylene
TC3H5     ! 2-propenyl (CH2=C)(.)-CH3 or 1-methylvinyl radical
C3H6O     ! propene oxide
C3H4CY    ! cyclopropene
C4H8      ! 1-butene
T2C4H8    ! trans-2-butene
C2C4H8    ! cis-2-butene
C6H6      ! benzene
C6H10     ! 1,5-hexadiene
C3H5      ! allyl radical
C3H4      ! allene or propadiene
IC4H3     ! 1-buten-3-yn-2yl (two mesomers)
NC4H3     ! 1-buten-3-ynyl
C6H5O     ! phenoxy radical
AR        N2
END
REACTIONS         !BASE M=N2

!*********************************************************************
!
! A.KONNOV's detailed reaction mechanism   VER 0.4 CHECKED 8/9/98
! CH3NO3 deleted 22/7/98
!*********************************************************************
H+H+M=H2+M                     6.500E+17     -1.0         0.0
 H2/0.0/ H2O/6.2/ CO/1.875/ CO2/3.75/ 
 CH4/3.0/ CH3OH/7.5/
H+H+H2=H2+H2                   1.000E+17     -0.6         0.0 
O+O+M=O2+M                     1.000E+17     -1.0         0.0 
 H2/2.5/ H2O/6.2/ CO/1.875/ CO2/3.75/ O/71.0/ O2/20.0/ NO/5.0/
 CH4/2.1/ N2/5.0/ N/5.0/
O+H+M=OH+M                     6.200E+16     -0.6         0.0 
 H2/2.5/ H2O/6.2/ CO/1.875/ CO2/3.75/ AR/0.88/ 
 CH4/3.2/ CH3OH/3.5/ 
H2+O2=OH+OH                    1.700E+13      0.0     48150.0 
O+H2=OH+H                      5.060E+04      2.67     6285.0 
H+O2=OH+O                      1.000E+14      0.0     14843.0 
H+O2+M=HO2+M                   1.400E+18     -0.8         0.0 
 H2O/1.1/ H2/1.5/ CH4/3.0/ CO2/3.75/ CO/1.875/
 AR/0.44/ CH3OH/7.5/ 
H+OH+M=H2O+M                   2.200E+22     -2.0         0.0 
 H2O/6.4/ H2/2.5/ CH4/3.0/ CO2/3.75/ CO/1.875/
 AR/0.38/ CH3OH/7.5/ 
H2+OH=H2O+H                    1.000E+08      1.6      3300.0 
OH+OH=H2O+O                    1.500E+09      1.14      100.0 
HO2+OH=H2O+O2                  1.900E+16     -1.0         0.0 
HO2+O=OH+O2                    3.250E+13      0.0         0.0 
H+HO2=H2+O2                    4.216E+13      0.0      1411.0 
H+HO2=OH+OH                    1.700E+14      0.0       875.0 
H+HO2=H2O+O                    3.000E+13      0.0      1700.0 
HO2+HO2=H2O2+O2                4.200E+14      0.0     12000.0 
    DUPLICATE
HO2+HO2=H2O2+O2                1.300E+11      0.0     -1640.0 
    DUPLICATE
OH+OH(+M)=H2O2(+M)             7.200E+13     -0.37        0.0 
    LOW /2.2E+19 -0.76 0.0/ 
    TROE /0.5 100000 10/
    H2O/0.0/
OH+OH(+H2O)=H2O2(+H2O)         7.200E+13     -0.37        0.0 
    LOW /1.1E+20 -0.76 0.0/ 
H2O2+OH=HO2+H2O                7.800E+12      0.0      1320.0 
H2O2+H=HO2+H2                  1.700E+12      0.0      3750.0 
H2O2+H=H2O+OH                  1.000E+13      0.0      3575.0 
H2O2+O=HO2+OH                  6.600E+11      0.0      4000.0 

N2+O=NO+N                      1.800E+14      0.0     76100.0
N+O2=NO+O                      9.000E+09      1.0      6500.0
NO+M=N+O+M                     9.640E+14      0.0    148300.0
       N2 /1.5/ NO /3.0/
NO+NO=N2+O2                    3.000E+11      0.0     65000.0
N2O(+M)=N2+O(+M)               1.260E+12      0.0     62620.0
    LOW / 4.000E+14 0.0 56640.0/ 
   O2/1.4/ CO2/3.0/ N2/1.7/ H2O/12.0/ NO/3.0/ N2O/3.5/
N2O+O=N2+O2                    1.000E+14      0.0     28200.0
N2O+O=NO+NO                    6.920E+13      0.0     26630.0
N2O+N=N2+NO                    1.000E+13      0.0     20000.0
N2O+NO=N2+NO2                  2.750E+14      0.0     50000.0
NO+O(+M)=NO2(+M)               1.300E+15     -0.75        0.0 
    LOW /4.72E+24 -2.87 1551.0/
    TROE /0.962 10.0 7962.0 /
    AR /0.6/ NO2 /6.2/ NO /1.8/ O2 /0.8/ N2O /4.4/
NO2+O=NO+O2                    3.910E+12      0.0      -238.0 
NO2+N=N2O+O                    8.400E+11      0.0         0.0
NO2+N=NO+NO                    1.000E+12      0.0         0.0
NO2+NO=N2O+O2                  1.000E+12      0.0     60000.0
NO2+NO2=NO+NO+O2               3.950E+12      0.0     27590.0 
NO2+NO2=NO3+NO                 1.130E+04      2.58    22720.0 
NO2+O(+M)=NO3(+M)              1.330E+13      0.0         0.0
    LOW / 1.49E+28 -4.08 2467.0 /
    TROE /0.86 10.0 2800.0 /
    H2O/10.0/ O2/0.8/ H2/2.0/  
NO3=NO+O2                      2.500E+06      0.0     12120.0
NO3+NO2=NO+NO2+O2              1.200E+11      0.0      3200.0 
NO3+O=NO2+O2                   1.020E+13      0.0         0.0
NO3+NO3=NO2+NO2+O2             5.120E+11      0.0      4870.0
N2O4(+M)=NO2+NO2(+M)           4.050E+18     -1.1     12840.0
     LOW /1.96E+28  -3.8  12840./
     AR/0.8/ N2O4/2.0/ NO2/2.0/
N2O4+O=N2O3+O2                 1.210E+12      0.0         0.0
NO2+NO(+M)=N2O3(+M)            1.600E+09     -1.4         0.0
     LOW /1.0E+33  -7.7  0.0/
N2O3+O=NO2+NO2                 2.710E+11      0.0         0.0
N2+M=N+N+M                     3.700E+21     -1.6    225000.0
    AR/0.34/ N/2.2/ O/2.2/
NH+M=N+H+M                     2.650E+14      0.0     75500.0
NH+H=N+H2                      3.200E+13      0.0       325.0
NH+N=N2+H                      6.300E+11      0.5         0.0
NH+NH=N2+H+H                   2.540E+13      0.0         0.0
NH+NH=NNH+H                    8.000E+11      0.5      1000.0
NH+NH=NH2+N                    2.000E+11      0.5      2000.0
NH+NH=N2+H2                    1.000E+08      1.0         0.0
NH2+M=NH+H+M                   3.160E+23     -2.0     91400.0
NH+H2=NH2+H                    1.000E+14      0.0     20070.0
NH2+N=N2+H+H                   6.900E+13      0.0         0.0
NH2+NH=N2H2+H                  1.500E+15     -0.5         0.0
NH2+NH=NH3+N                   1.000E+13      0.0      2000.0
NH2+NH2=NH3+NH                 5.000E+12      0.0     10000.0
NH2+NH2=N2H2+H2                4.000E+13      0.0     12000.0
N2H3+H=NH2+NH2                 1.580E+12      0.0         0.0
NH3+M=NH2+H+M                  2.200E+16      0.0     93470.0
NH3+M=NH+H2+M                  6.300E+14      0.0     93390.0
NH3+H=NH2+H2                   5.420E+05      2.4      9920.0
NH3+NH2=N2H3+H2                1.000E+11      0.5     21600.0
NNH=N2+H                       3.000E+08      0.0         0.0
     DUPLICATE
NNH+M=N2+H+M                   1.000E+13      0.5      3060.0
     DUPLICATE
NNH+H=N2+H2                    4.000E+13      0.0      3000.0
NNH+N=NH+N2                    3.000E+13      0.0      2000.0
NNH+NH=N2+NH2                  2.000E+11      0.5      2000.0
NNH+NH2=N2+NH3                 1.000E+13      0.0         0.0
NNH+NNH=N2H2+N2                1.000E+13      0.0     10000.0
N2H2+M=NNH+H+M                 5.000E+16      0.0     50000.0
     H2O/15.0/ O2/2.0/ N2/2.0/ H2/2.0/
N2H2+M=NH+NH+M                 3.160E+16      0.0     99400.0
N2H2+H=NNH+H2                  5.000E+13      0.0      1000.0
N2H2+NH=NNH+NH2                1.000E+13      0.0      1000.0
N2H2+NH2=NH3+NNH               1.000E+13      0.0      4000.0
N2H2+NH2=NH+N2H3               1.000E+11      0.5     33780.0
N2H2+N2H2=NNH+N2H3             1.000E+13      0.0     12000.0
N2H3+M=NH2+NH+M                1.000E+16      0.0     70000.0
N2H3+M=N2H2+H+M                1.000E+16      0.0     49700.0
N2H3+H=N2H2+H2                 1.000E+12      0.0      2000.0
N2H3+H=NH+NH3                  1.000E+11      0.0         0.0
N2H3+NH2=NH3+N2H2              1.000E+11      0.5         0.0
N2H3+N2H2=N2H4+NNH             1.000E+13      0.0     10000.0
N2H3+N2H3=NH3+NH3+N2           1.000E+12      0.0         0.0
N2H4(+M)=NH2+NH2(+M)           7.900E+13      0.0     55000.0
  LOW/4.46E+15 0.0 41000. /
N2H4+M=N2H3+H+M                1.000E+15      0.0     80000.0
N2H4+H=N2H3+H2                 5.940E+12      0.0      2380.0
N2H4+H=NH2+NH3                 4.460E+09      0.0      3100.0
N2H4+N=N2H3+NH                 6.150E+13      0.0      4000.0
N2H4+NH=NH2+N2H3               1.000E+12      0.5      2000.0
N2H4+NH2=N2H3+NH3              4.000E+10      0.5      2000.0
N2H4+N2H2=N2H3+N2H3            2.500E+10      0.5     30000.0

N+OH=NO+H                      2.800E+13      0.0         0.0 
N2O+H=N2+OH                    2.200E+14      0.0     16750.0 
N2O+H=NH+NO                    6.700E+22     -2.16    37155.0
N2O+H=NNH+O                    5.500E+18     -1.06    47300.0 
N2O+OH=N2+HO2                  1.000E+12      0.0     17000.0 
HNO+NO=N2O+OH                  8.500E+12      0.0     29580.0 
NO2+H=NO+OH                    1.320E+14      0.0       362.0 
NO2+OH=HO2+NO                  1.810E+13      0.0      6676.0 
NO2+HO2=HONO+O2                4.640E+11      0.0      -479.0
NO2+H2=HONO+H                  3.210E+12      0.0     28810.0  
NO2+NH=N2O+OH                  1.000E+13      0.0         0.0
NO3+H=NO2+OH                   6.620E+13      0.0         0.0
NO3+OH=NO2+HO2                 1.390E+13      0.0         0.0
NO3+HO2=HNO3+O2                5.550E+11      0.0         0.0
NO3+HO2=NO2+OH+O2              1.510E+12      0.0         0.0
N2O4+H2O=HONO+HNO3             2.520E+14      0.0     11590.0
N2O3+H2O=HONO+HONO             3.790E+13      0.0      8880.0
H+NO(+M)=HNO(+M)               1.520E+15     -0.41        0.0
    LOW /8.96E+19 -1.32 735.2 /
    TROE /0.82 10.0 100000.0 / 
    H2O/10.0/ O2/2.0/ AR/0.75/ H2/2.0/
HNO+H=NO+H2                    4.460E+11      0.72      655.0 
HNO+OH=NO+H2O                  1.300E+07      1.88     -956.0 
HNO+O=OH+NO                    5.000E+11      0.5      2000.0
HNO+O=NO2+H                    5.000E+10      0.0      2000.0
HNO+O2=NO+HO2                  2.200E+10      0.0      9140.0
HNO+N=NO+NH                    1.000E+11      0.5      2000.0 
HNO+N=H+N2O                    5.000E+10      0.5      3000.0
HNO+NH=NH2+NO                  5.000E+11      0.5         0.0
HNO+NH2=NH3+NO                 2.000E+13      0.0      1000.0 
HNO+HNO=N2O+H2O                3.630E-02      3.98     1190.0 
HNO+NO2=HONO+NO                6.020E+11      0.0      2000.0
NO+OH(+M)=HONO(+M)             2.000E+12     -0.05     -721.0 
    LOW / 5.08E+23 -2.51 -67.6 /
    TROE /0.62 10.0 100000.0 /
    H2O/10.0/ O2/2.0/ AR/0.75/ H2/2.0/   
NO2+H+M=HONO+M                 1.400E+18     -1.5       900.0
HONO+O=OH+NO2                  1.200E+13      0.0      5960.0
HONO+OH=H2O+NO2                1.260E+10      1.0       135.0 
HONO+HONO=H2O+NO2+NO           2.300E+12      0.0      8350.0
HONO+NH2=NO2+NH3               5.000E+12      0.0         0.0
NO2+OH(+M)=HNO3(+M)            2.410E+13      0.0         0.0
    LOW / 6.42E+32 -5.49 2350.0 /
    TROE /1.0 10.0 1168.0 /
    H2O/10.0/ O2/2.0/ AR/0.75/ H2/2.0/  
NO+HO2+M=HNO3+M                2.230E+12     -3.5      2200.0
HNO3+OH=NO3+H2O                1.030E+10      0.0     -1240.0
NH3+O=NH2+OH                   1.100E+06      2.1      5210.0 
NH3+OH=NH2+H2O                 5.000E+07      1.6       950.0 
NH3+HO2=NH2+H2O2               3.000E+11      0.0     22000.0
NH2+HO2=NH3+O2                 8.000E+12      0.0         0.0 
NH2+O=H2+NO                    5.000E+12      0.0         0.0 
NH2+O=HNO+H                    4.500E+13      0.0         0.0 
NH2+O=NH+OH                    7.000E+12      0.0         0.0 
NH2+OH=NH+H2O                  9.000E+07      1.5      -460.0 
NH2+HO2=HNO+H2O                8.000E+12      0.0         0.0 
NH2+O2=HNO+OH                  4.500E+12      0.0     25000.0 
NH2+NO=NNH+OH                  9.300E+11      0.0         0.0
NH2+NO=N2+H2O                  2.000E+20     -2.6       920.0 
NH2+NO2=N2O+H2O                3.200E+18     -2.2         0.0
NH+O=NO+H                      4.500E+13      0.0         0.0 
NH+O=N+OH                      4.500E+13      0.0         0.0 
NH+OH=HNO+H                    2.000E+13      0.0         0.0 
NH+OH=N+H2O                    5.000E+11      0.5      2000.0 
NH+OH=NO+H2                    2.000E+13      0.0         0.0 
NH+HO2=HNO+OH                  1.000E+13      0.0      2000.0
NH+O2=HNO+O                    4.000E+13      0.0     18000.0 
NH+O2=NO+OH                    7.800E+10      0.0      1530.0 
NH+H2O=HNO+H2                  2.000E+13      0.0     13850.0 
NH+N2O=N2+HNO                  2.000E+12      0.0      6000.0
NH+NO=NNH+O                    5.600E+12      0.21    10870.0 
NH+NO=N2+OH                    6.100E+13     -0.50      120.0 
NH+NO2=NO+HNO                  1.000E+11      0.5      4000.0
N2H4+O=N2H2+H2O                8.500E+13      0.0      1200.0
N2H4+OH=N2H3+H2O               3.000E+10      0.68     1290.0
N2H3+O=N2H2+OH                 2.000E+13      0.0      1000.0
N2H3+OH=N2H2+H2O               3.000E+10      0.68     1290.0
N2H3+O2=N2H2+HO2               3.000E+12      0.0         0.0
N2H3+HO2=N2H4+O2               8.000E+12      0.0         0.0
N2H2+O=NH2+NO                  1.000E+13      0.0         0.0 
N2H2+O=NNH+OH                  2.000E+13      0.0      1000.0 
N2H2+OH=NNH+H2O                1.000E+13      0.0      1000.0 
N2H2+NO=N2O+NH2                3.000E+13      0.0         0.0 
NNH+O=N2+OH                    1.700E+16     -1.23      500.0
NNH+OH=N2+H2O                  2.400E+22     -2.88     2444.0 
NNH+O2=N2+HO2                  1.200E+12     -0.34      150.0
NNH+O2=N2O+OH                  2.900E+11     -0.34      150.0
NNH+NO=N2+HNO                  5.000E+13      0.0         0.0 

CO+HO2=CO2+OH                  1.500E+14      0.0     23650.0 
CO+OH=CO2+H                    1.170E+07      1.354    -725.0 
CO+O+M=CO2+M                   6.160E+14      0.0      3000.0 
 H2/2.5/ H2O/6.2/ CO/1.875/ CO2/3.75/ AR/0.88/
 CH4/3.2/ CH3OH/7.5/ 
CO+O2=CO2+O                    2.500E+12      0.0     47800.0 
HCO+M=H+CO+M                   1.560E+14      0.0     15760.0 
 H2/2.5/ H2O/6.2/ CO/1.875/ CO2/3.75/ AR/1.0/
 CH4/3.2/ CH3OH/7.5/ 
HCO+OH=CO+H2O                  1.000E+14      0.0         0.0 
HCO+O=CO+OH                    3.000E+13      0.0         0.0 
HCO+O=CO2+H                    3.000E+13      0.0         0.0 
HCO+H=CO+H2                    9.000E+13      0.0         0.0 
HCO+O2=CO+HO2                  1.200E+10      0.807    -727.2 
HCO+CH3=CO+CH4                 1.200E+14      0.0         0.0 
HCO+HO2=CO2+OH+H               3.000E+13      0.0         0.0 
HCO+HCO=CH2O+CO                3.000E+13      0.0         0.0 
HCO+HCO=H2+CO+CO               3.000E+12      0.0         0.0 
CH4(+M)=CH3+H(+M)              2.400E+16      0.0    104913.0 
    LOW /4.5E+17 0.0 90800/ 
    TROE /1.0 10.0 1350.0 7830.0/ 
    CH4/0.0/ H2/2.0/ CO/2.0/ CO2/3.0/ H2O/5.0/ 
CH4(+CH4)=CH3+H(+CH4)          2.400E+16      0.0    104913.0 
    LOW /8.4E+18 0.0 90800/ 
    TROE /0.31 2210.0 90/ 
CH4+HO2=CH3+H2O2               9.000E+12      0.0     24641.0 
CH4+OH=CH3+H2O                 1.548E+07      1.83     2774.0 
CH4+O=CH3+OH                   7.200E+08      1.56     8485.0 
CH4+H=CH3+H2                   1.300E+04      3.0      8050.0 
CH4+CH2=CH3+CH3                4.300E+12      0.0     10038.0 
CH4+O2=CH3+HO2                 4.000E+13      0.0     56900.0 
CH3+M=CH2+H+M                  1.000E+16      0.0     90600.0 
 H2/2.5/ H2O/6.2/ CO/1.875/ CO2/3.75/ AR/0.88/
 CH4/3.2/ CH3OH/7.5/ 
CH3+M=CH+H2+M                  1.000E+16      0.0     85240.0 
 H2/2.5/ H2O/6.2/ CO/1.875/ CO2/3.75/ AR/0.88/
 CH4/3.2/ CH3OH/7.5/ 
CH3+HO2=CH3O+OH                8.000E+12      0.0         0.0 
CH3+OH=CH2OH+H                 2.640E+19     -1.8      8068.0 
CH3+OH=CH3O+H                  5.740E+12     -0.23    13931.0 
CH3+OH=CH2+H2O                 8.900E+18     -1.8      8067.0 
CH3+OH=CH2O+H2                 3.190E+12     -0.53    10810.0 
CH3+O=H+CH2O                   8.430E+13      0.0         0.0 
CH3+O2=CH2O+OH                 3.400E+11      0.0      8940.0 
CH3+O2=CH3O+O                  1.320E+14      0.0     31400.0 
CH3+CH3(+M)=C2H5+H(+M)         3.800E-07      4.838    7710.0 
    LOW /5.0E+12 0.099 10600.0/
    SRI /1.641 4334.0 2725.0/ 
CH3+CH3(+M)=C2H6(+M)           9.210E+16     -1.174     636.0 
    LOW /1.13E+36 -5.246 1705/ 
    TROE /0.405 1120.0 69.6/
    H2/2.0/ CO/2.0/ CO2/3.0/ H2O/5.0/ 
CH3+CH3O=CH4+CH2O              2.409E+13      0.0         0.0 
CH3+CH2OH=CH4+CH2O             2.410E+12      0.0         0.0 
CH3+H=SCH2+H2                  6.000E+13      0.0     15100.0 
CH3+O2(+M)=CH3O2(+M)           7.800E+08      1.2         0.0 
    LOW/5.8E+25 -3.30 0.0/
    TROE /0.495 2325.5 10/
CH3+CH3=C2H4+H2                1.000E+14      0.0     32000.0 
CH3+OH=SCH2+H2O                7.200E+12      0.0      2780.0 
CH2+OH=CH2O+H                  2.500E+13      0.0         0.0 
CH2+O=CO+H2                    4.800E+13      0.0         0.0 
CH2+O=CO+H+H                   7.200E+13      0.0         0.0 
CH2+O=CH+OH                    5.000E+13      0.0         0.0 
CH2+O=HCO+H                    8.000E+13      0.0         0.0 
CH2+H=CH+H2                    6.000E+12      0.0     -1800.0 
CH2+O2=HCO+OH                  4.300E+10      0.0      -500.0 
CH2+O2=CO2+H2                  6.900E+11      0.0       500.0 
CH2+O2=CO2+H+H                 1.600E+12      0.0      1000.0 
CH2+O2=CO+H2O                  1.900E+10      0.0     -1000.0 
CH2+O2=CO+OH+H                 8.600E+10      0.0      -500.0 
CH2+O2=CH2O+O                  5.000E+13      0.0      9000.0 
CH2+CO2=CH2O+CO                1.100E+11      0.0      1000.0 
CH2+CH2=C2H2+H2                1.200E+13      0.0       800.0 
CH2+CH2=C2H2+H+H               1.200E+14      0.0       800.0 
CH2+CH3=C2H4+H                 4.200E+13      0.0         0.0 
CH2+CH=C2H2+H                  4.000E+13      0.0         0.0 
CH2+M=C+H2+M                   1.600E+14      0.0     64000.0 
SCH2+M=CH2+M                   6.000E+12      0.0         0.0 
 H2/2.5/ H2O/5.0/ CO/1.875/ CO2/3.75/ AR/0.6/ CH4/1.2/
 C2H2/8.0/ C2H4/4.0/ C2H6/3.6/ H/33.3/ 
SCH2+O2=CO+OH+H                3.000E+13      0.0         0.0 
SCH2+H=CH+H2                   3.000E+13      0.0         0.0 
SCH2+O=CO+H+H                  1.500E+13      0.0         0.0 
SCH2+O=CO+H2                   1.500E+13      0.0         0.0 
SCH2+OH=CH2O+H                 3.000E+13      0.0         0.0 
SCH2+HO2=CH2O+OH               3.000E+13      0.0         0.0 
SCH2+H2O2=CH3O+OH              3.000E+13      0.0         0.0 
SCH2+H2O=>CH3OH                1.800E+13      0.0         0.0 
SCH2+CH2O=CH3+HCO              1.200E+12      0.0         0.0 
SCH2+HCO=CH3+CO                1.800E+13      0.0         0.0 
SCH2+CH3=C2H4+H                1.800E+13      0.0         0.0 
SCH2+CH4=CH3+CH3               4.000E+13      0.0         0.0 
SCH2+C2H6=CH3+C2H5             1.200E+14      0.0         0.0 
SCH2+CO2=CH2O+CO               3.000E+12      0.0         0.0 
SCH2+CH2CO=C2H4+CO             1.600E+14      0.0         0.0 
CH+OH=HCO+H                    3.000E+13      0.0         0.0 
CH+O=CO+H                      4.000E+13      0.0         0.0 
CH+O2=HCO+O                    4.900E+13      0.0         0.0 
CH+O2=CO+OH                    4.900E+13      0.0         0.0 
CH+CO2=HCO+CO                  3.400E+12      0.0       690.0 
CH+CH4=C2H4+H                  3.000E+13      0.0      -400.0 
CH+CH3=C2H3+H                  3.000E+13      0.0         0.0 
CH2+OH=CH+H2O                  1.130E+07      2.0      3000.0 
CH+H=C+H2                      7.800E+13      0.0         0.0 
CH+H2O=CH2O+H                  1.170E+15     -0.75        0.0 
CH+CH2O=CH2CO+H                1.000E+14      0.0      -515.0 
CH3O+M=CH2O+H+M                5.400E+13      0.0     13500.0 
 H2/2.5/ H2O/6.2/ CO/1.875/ CO2/3.75/ AR/0.88/
 CH4/3.2/ CH3OH/7.5/ 
CH3O+HO2=CH2O+H2O2             3.000E+11      0.0         0.0 
CH3O+OH=CH2O+H2O               1.000E+13      0.0         0.0 
CH3O+O=CH2O+OH                 1.800E+12      0.0         0.0 
CH3O+H=CH2O+H2                 1.800E+13      0.0         0.0 
CH3O+O2=CH2O+HO2               2.200E+10      0.0      1750.0 
CH3O+CH2O=CH3OH+HCO            1.150E+11      0.0      1280.0 
CH3O+CO=CH3+CO2                1.566E+13      0.0     11804.0 
CH3O+HCO=CH3OH+CO              9.000E+13      0.0         0.0 
CH3O+C2H5=CH2O+C2H6            2.410E+13      0.0         0.0 
CH3O+C2H3=CH2O+C2H4            2.410E+13      0.0         0.0 
CH3O+C2H4=CH2O+C2H5            1.200E+11      0.0      6750.0 
CH3O+H=CH2OH+H                 3.400E+06      1.6         0.0 
CH3O+H=SCH2+H2O                1.000E+12      0.0         0.0 
CH2O+M=HCO+H+M                 5.000E+35     -5.54    96680.0 
 H2/2.5/ H2O/6.2/ CO/1.875/ CO2/3.75/ AR/1.0/
 CH4/3.2/ CH3OH/7.5/ 
CH2O+M=CO+H2+M                 1.100E+36     -5.54    96680.0 
 H2/2.5/ H2O/6.2/ CO/1.875/ CO2/3.75/ AR/1.0/
 CH4/3.2/ CH3OH/7.5/ 
CH2O+HO2=HCO+H2O2              3.000E+12      0.0     13000.0 
CH2O+OH=HCO+H2O                3.433E+09      1.18     -447.0 
CH2O+O=HCO+OH                  4.100E+11      0.57     2760.0 
CH2O+H=HCO+H2                  1.260E+08      1.62     2166.0 
CH2O+O2=HCO+HO2                6.000E+13      0.0     40650.0 
CH2O+CH3=HCO+CH4               7.800E-08      6.1      1970.0 
C2H6(+M)=C2H5+H(+M)            8.850E+20     -1.228  102210.0 
    LOW /6.90E+42 -6.431 107175.0/
    SRI /47.61 16182.0 3371.0/ 
 H2/2.0/ H2O/6.0/ CH4/2.0/ CO/1.5/ CO2/2.0/ C2H6/3.0/ AR/0.7/
C2H6+HO2=C2H5+H2O2             1.330E+13      0.0     20535.0 
C2H6+OH=C2H5+H2O               7.200E+06      2.0       870.0 
C2H6+O=C2H5+OH                 1.000E+09      1.5      5800.0 
C2H6+H=C2H5+H2                 1.400E+09      1.5      7400.0 
C2H6+O2=C2H5+HO2               6.000E+13      0.0     52000.0 
C2H6+CH3=C2H5+CH4              1.470E-07      6.0      6060.0 
C2H6+CH2=CH3+C2H5              6.500E+12      0.0      7911.0 
C2H6+C2H3=C2H4+C2H5            8.566E-02      4.14     2543.0 
C2H6+HCO=CH2O+C2H5             4.700E+04      2.72    18235.0 
C2H5(+M)=C2H4+H(+M)            1.110E+10      1.037   36767.0 
    LOW /4.0E+33 -4.99 40000.0/
    TROE /0.832 10 1203.0/
 H2/2.0/ CO/2.0/ CO2/3.0/ H2O/5.0/ CH4/2.0/ C2H6/0.0/ AR/0.7/
C2H5(+C2H6)=C2H4+H(+C2H6)      8.200E+13      0.0     39880.0 
    LOW /1.0E+18 0.0 33380.0/
    TROE /0.75 97.0 1379.0/
C2H5+HO2=C2H4+H2O2             3.000E+11      0.0         0.0 
C2H5+OH=C2H4+H2O               2.409E+13      0.0         0.0 
C2H5+OH=>CH3+CH2O+H            2.409E+13      0.0         0.0 
C2H5+O=CH2O+CH3                4.240E+13      0.0         0.0 
C2H5+O=CH3HCO+H                5.300E+13      0.0         0.0 
C2H5+O=C2H4+OH                 3.460E+13      0.0         0.0 
C2H5+H=C2H4+H2                 1.250E+14      0.0      8000.0 
C2H5+O2=C2H4+HO2               1.000E+10      0.0     -2200.0 
C2H5+CH3=C2H4+CH4              1.100E+12      0.0         0.0 
C2H5+C2H5=C2H4+C2H6            1.400E+12      0.0         0.0 
C2H5+HO2=>CH3+CH2O+OH          2.500E+13      0.0         0.0 
C2H5+HO2=C2H5O+OH              3.000E+13      0.0         0.0 
C2H4+M=C2H2+H2+M               3.500E+16      0.0     71530.0 
    H2/2.5/ H2O/6.2/ CO/1.875/ CO2/3.75/ AR/1.0/
    CH4/3.2/ CH3OH/7.5/ 
C2H4+M=C2H3+H+M                2.600E+17      0.0     96570.0 
    H2/2.5/ H2O/6.2/ CO/1.875/ CO2/3.75/ AR/1.0/
    CH4/3.2/ CH3OH/7.5/ 
C2H4+OH=C2H3+H2O               5.530E+05      2.31     2900.0 
C2H4+O=CH3+HCO                 8.100E+06      1.88      180.0 
C2H4+H=C2H3+H2                 4.490E+07      2.12    13366.0 
C2H4+O2=C2H3+HO2               4.000E+13      0.0     61500.0 
C2H4+C2H4=C2H5+C2H3            1.860E+14      0.0     64200.0 
C2H4+CH3=C2H3+CH4              4.200E+12      0.0     11100.0 
C2H4+O=CH2HCO+H                4.700E+06      1.88      180.0 
C2H4+O=CH2O+CH2                3.000E+04      1.88      180.0 
C2H4+O=CH2CO+H2                6.700E+05      1.88      180.0 
C2H4+O=C2H3+OH                 1.510E+07      1.91     3790.0 
C2H4+OH=CH2O+CH3               2.000E+12      0.0       960.0 
C2H4+OH(+M)=PC2H5O(+M)         5.420E+12      0.0         0.0
      LOW /1.19E+27 -3.1 0.0/ 
C2H4+HO2=C2H3+H2O2             1.120E+13      0.0     30400.0 
C2H4+CH3O=C2H3+CH3OH           1.000E+11      0.0     10000.0 
C2H3(+M)=C2H2+H(+M)            2.100E+14      0.0     39740.0 
    LOW /4.15E+41 -7.5 45500.0/
    TROE /0.65 100000 10/
 H2/2.0/ CO/2.0/ CO2/3.0/ H2O/5.0/ CH4/2.0/ C2H6/3.0/ AR/0.7/
C2H3+HO2=>CH3+CO+OH            3.000E+13      0.0         0.0 
C2H3+OH=C2H2+H2O               3.000E+13      0.0         0.0 
C2H3+H=C2H2+H2                 1.200E+13      0.0         0.0 
C2H3+O=CH3+CO                  1.000E+13      0.0         0.0 
C2H3+O2=CH2O+HCO               1.700E+29     -5.312    6500.0 
C2H3+CH=CH2+C2H2               5.000E+13      0.0         0.0 
C2H3+CH3=C2H2+CH4              3.920E+11      0.0         0.0 
C2H3+C2H=C2H2+C2H2             3.000E+13      0.0         0.0 
C2H3+HCO=C2H4+CO               9.034E+13      0.0         0.0 
C2H3+CH2O=C2H4+HCO             5.420E+03      2.81     5862.0 
C2H3+C2H3=C2H2+C2H4            1.450E+13      0.0         0.0 
C2H3+O=C2H2+OH                 1.000E+13      0.0         0.0 
C2H3+O=CH2+HCO                 1.000E+13      0.0         0.0 
C2H3+O=CH2CO+H                 1.000E+13      0.0         0.0 
C2H3+OH=CH3HCO                 3.000E+13      0.0         0.0 
C2H3+O2=C2H2+HO2               5.190E+15     -1.26     3310.0 
      DUPLICATE
C2H3+O2=C2H2+HO2               2.120E-06      6.0      9484.0
      DUPLICATE
C2H3+O2=CH2HCO+O               3.500E+14     -0.61     5260.0
C2H3+CH2=C2H2+CH3              3.000E+13      0.0         0.0 
C2H2=C2H+H                     2.373E+32     -5.28   130688.0 
C2H2+O2=HCCO+OH                2.000E+08      1.5     30100.0 
C2H2+O2=C2H+HO2                1.200E+13      0.0     74520.0 
C2H2+OH=C2H+H2O                3.385E+07      2.0     14000.0 
C2H2+OH=CH2CO+H                2.180E-04      4.5     -1000.0 
C2H2+O=CH2+CO                  1.200E+06      2.1      1570.0 
C2H2+O=HCCO+H                  5.000E+06      2.1      1570.0 
C2H2+CH3=C2H+CH4               1.800E+11      0.0     17290.0 
C2H2+O=C2H+OH                  3.000E+14      0.0     25000.0 
C2H2+OH=CH3+CO                 4.830E-04      4.0     -2000.0 
C2H2+HO2=CH2CO+OH              6.100E+09      0.0      7950.0 
C2H2+O2=HCO+HCO                4.000E+12      0.0     28000.0 
C2H+OH=HCCO+H                  2.000E+13      0.0         0.0 
C2H+OH=C2+H2O                  4.000E+07      2.0      8000.0 
C2H+O=CO+CH                    1.000E+13      0.0         0.0 
C2H+O2=HCO+CO                  9.000E+12      0.0         0.0 
C2H+H2=C2H2+H                  1.100E+13      0.0      2165.0 
C2H+O2=CO+CO+H                 9.000E+12      0.0         0.0 
C2H+O2=HCCO+O                  6.000E+11      0.0         0.0 
CH2CO(+M)=CH2+CO(+M)           3.000E+14      0.0     71000.0 
    LOW /2.300E+15   0.0  57600.0/ 
    H2/2.5/ H2O/6.2/ CO/1.875/ CO2/3.75/ AR/1.0/
    CH4/3.2/ CH3OH/7.5/ 
CH2CO+O2=CH2O+CO2              2.000E+13      0.0     61500.0 
CH2CO+HO2=>CH2O+CO+OH          6.000E+11      0.0     12738.0 
CH2CO+O=HCCO+OH                1.000E+13      0.0      8000.0 
CH2CO+OH=CH2OH+CO              1.000E+13      0.0         0.0 
CH2CO+H=CH3+CO                 1.800E+13      0.0      3400.0 
CH2CO+CH3=C2H5+CO              2.400E+12      0.0      8000.0 
CH2CO+CH2=C2H4+CO              1.000E+12      0.0         0.0 
CH2CO+CH2=HCCO+CH3             3.600E+13      0.0     11000.0
CH2CO+CH3=HCCO+CH4             7.500E+12      0.0     13000.0
CH2CO+OH=CH2O+HCO              2.800E+13      0.0         0.0 
CH2CO+H=HCCO+H2                5.000E+13      0.0      8000.0 
CH2CO+O=HCO+HCO                7.500E+11      0.0      1350.0 
CH2CO+O=HCO+CO+H               7.500E+11      0.0      1350.0 
CH2CO+O=CH2O+CO                7.500E+11      0.0      1350.0 
CH2CO+OH=HCCO+H2O              7.500E+12      0.0      2000.0 
HCCO+M=CH+CO+M                 6.000E+15      0.0     58821.0 
    H2/2.5/ H2O/6.2/ CO/1.875/ CO2/3.75/ AR/0.88/
    CH4/3.2/ CH3OH/7.5/ 
HCCO+OH=HCO+CO+H               1.000E+13      0.0         0.0 
HCCO+OH=C2O+H2O                3.000E+13      0.0         0.0 
HCCO+O=CO+CO+H                 1.000E+14      0.0         0.0 
HCCO+H=CH2+CO                  1.500E+14      0.0         0.0 
HCCO+O2=CO2+CO+H               5.400E+11      0.0       850.0 
HCCO+CH2=C2H+CH2O              1.000E+13      0.0      2000.0 
HCCO+CH2=C2H3+CO               3.000E+13      0.0         0.0 
HCCO+CH3=C2H4+CO               2.000E+12      0.0         0.0
HCCO+CH=CO+C2H2                5.000E+13      0.0         0.0 
HCCO+HCCO=CO+C2H2+CO           1.000E+13      0.0         0.0 
HCCO+OH=HCO+HCO                1.000E+13      0.0         0.0 
HCCO+O2=CO+CO+OH               5.400E+11      0.0       850.0 
HCCO+O2=CO2+HCO                5.400E+11      0.0       850.0 
CH3OH(+M)=CH3+OH(+M)           1.700E+16      0.0     90885.0 
    LOW /6.60E+16 0.0 65730.0/ 
    TROE /0.82 200.0 1438.0/
CH3OH+HO2=CH2OH+H2O2           6.300E+12      0.0     19360.0 