!-----------------------------------------------------------!
! 
!  Gas-phase chemistry for MOCVD for 
!   Yttrium-Barium-Copper-Oxide thin-film deposition 
!
!   Author:- Laxminarayan L. Raja
!  
!   Ref:-  
!  
!   File:-  chem.inp_YBCO
!
!   Date Modified:-  Jan. 1999
!------------------------------------------------------------!
ELEMENTS 
N O C H Y BA CU
END

SPECIES 
(THD) Y(THD)3 BA(THD)2 CU(THD)2 
Y BA CU
YO BAO CUO 
O2
END

THERMO
(THD)             052997C  11H  19O   2     G   500.000  2000.000 2000.00      1
 0.14490000E+02 0.04390000E+00 0.00000000E+00 0.00000000E+00 0.00000000E+00    2
 0.00000000E+00 0.00000000E+00 0.14490000E+02 0.04390000E+00 0.00000000E+00    3
 0.00000000E+00 0.00000000E+00 0.00000000E+00 0.00000000E+00                   4
Y(THD)3           052997Y   1C  33H  57O   6G   500.000  2000.000 2000.00      1
 0.47072000E+02 0.13170000E+00 0.00000000E+00 0.00000000E+00 0.00000000E+00    2
 0.00000000E+00 0.00000000E+00 0.47072000E+02 0.13170000E+00 0.00000000E+00    3
 0.00000000E+00 0.00000000E+00 0.00000000E+00 0.00000000E+00                   4
BA(THD)2          052997BA  1C  22H  38O   4G   500.000  2000.000 2000.00      1
 0.12758000E+03 0.35030000E+00 0.00000000E+00 0.00000000E+00 0.00000000E+00    2
 0.00000000E+00 0.00000000E+00 0.12758000E+03 0.35030000E+00 0.00000000E+00    3
 0.00000000E+00 0.00000000E+00 0.00000000E+00 0.00000000E+00                   4
CU(THD)2          052997CU  1C  22H  38O   4G   500.000  2000.000 2000.00      1
 0.32163000E+02 0.08740000E+00 0.00000000E+00 0.00000000E+00 0.00000000E+00    2
 0.00000000E+00 0.00000000E+00 0.32163000E+02 0.08740000E+00 0.00000000E+00    3
 0.00000000E+00 0.00000000E+00 0.00000000E+00 0.00000000E+00                   4
Y                 052997Y   1               G   500.000  2000.000 2000.00      1
 0.47072000E+02 0.13170000E+00 0.00000000E+00 0.00000000E+00 0.00000000E+00    2
 0.00000000E+00 0.00000000E+00 0.47072000E+02 0.13170000E+00 0.00000000E+00    3
 0.00000000E+00 0.00000000E+00 0.00000000E+00 0.00000000E+00                   4
BA                052997BA  1               G   500.000  2000.000 2000.00      1
 0.12758000E+03 0.35030000E+00 0.00000000E+00 0.00000000E+00 0.00000000E+00    2
 0.00000000E+00 0.00000000E+00 0.12758000E+03 0.35030000E+00 0.00000000E+00    3
 0.00000000E+00 0.00000000E+00 0.00000000E+00 0.00000000E+00                   4
CU                052997CU  1               G   500.000  2000.000 2000.00      1
 0.32163000E+02 0.08740000E+00 0.00000000E+00 0.00000000E+00 0.00000000E+00    2
 0.00000000E+00 0.00000000E+00 0.32163000E+02 0.08740000E+00 0.00000000E+00    3
 0.00000000E+00 0.00000000E+00 0.00000000E+00 0.00000000E+00                   4
YO                052997Y   1O   1          G   500.000  2000.000 2000.00      1
 0.25000000E+01 0.00000000E+00 0.00000000E+00 0.00000000E+00 0.00000000E+00    2
 0.00000000E+00 0.00000000E+00 0.25000000E+01 0.00000000E+00 0.00000000E+00    3
 0.00000000E+00 0.00000000E+00 0.00000000E+00 0.00000000E+00                   4
BAO               052997BA  1O   1          G   500.000  2000.000 2000.00      1
 0.25000000E+01 0.00000000E+00 0.00000000E+00 0.00000000E+00 0.00000000E+00    2
 0.00000000E+00 0.00000000E+00 0.25000000E+01 0.00000000E+00 0.00000000E+00    3
 0.00000000E+00 0.00000000E+00 0.00000000E+00 0.00000000E+00                   4
CUO               052997CU  1O   1          G   500.000  2000.000 2000.00      1
 0.25000000E+01 0.00000000E+00 0.00000000E+00 0.00000000E+00 0.00000000E+00    2
 0.00000000E+00 0.00000000E+00 0.25000000E+01 0.00000000E+00 0.00000000E+00    3
 0.00000000E+00 0.00000000E+00 0.00000000E+00 0.00000000E+00                   4
END

REACTIONS           KCAL/MOLE
!!
!!-------metal precursor decomposition -----------!
!!
Y(THD)3      => Y + 3(THD)         2.2E+09   0.0  34.3       
Y(THD)3 + O2 => Y + 3(THD) + O2    4.08E+16  0.0  30.3   
!  CU(THD)2     => CU  + 2(THD)       6.03E+09  0.0  27.06  
!  BA(THD)2     => BA  + 2(THD)       2.39E+17  0.0  52.15  
!  BA(THD)2 + O2 => BA + 2(THD) + O2  1.69E+22  0.0  41.1   
!!
!!-------metal vapor oxidation -------------------!
!!
2Y   + O2   => 2YO                1.0E+15    0.00    0.00   !Raja  (guess)
  FORD/Y 1.0/ FORD/O2 1.0/
!  2BA  + O2    => 2BAO               1.0E+15    0.00    0.00   !Raja  (guess)
!    FORD/BA 1.0/ FORD/O2 1.0/ 
!  2CU  + O2     => 2CUO               1.0E+15    0.00    0.00   !Raja  (guess) 
!    FORD/CU 1.0/  FORD /O2 1.0/ 
!!
!!-------    -------------------------------------!
!!
END

