ELEMENTS
N  H  O  C  
END
SPECIES
N2     H     H2      O       OH     O2     H2O2   H2O
HO2    CO    CH3     CH2O    CO2    CH4    C2H2   C2H4
CH2CO  C2H6  C       CH      HCO    TXCH2  SXCH2  C2H3
C2H5   HCCO  CH3CHO  CH2CHO  C2H5O
END
TRANS ALL
N2                 1    97.530     3.621     0.000     1.760     4.000          
H                  0   145.000     2.050     0.000     0.000     0.000          
H2                 1    38.000     2.920     0.000     0.790   280.000          
O                  0    80.000     2.750     0.000     0.000     0.000          
OH                 1    80.000     2.750     0.000     0.000     0.000          
O2                 1   107.400     3.458     0.000     1.600     3.800          
H2O2               2   107.400     3.458     0.000     0.000     3.800          
H2O                2   572.400     2.605     1.844     0.000     4.000          
HO2                2   107.400     3.458     0.000     0.000     1.000          
CO                 1    98.100     3.650     0.000     1.950     1.800          
CH3                1   144.000     3.800     0.000     0.000     0.000          
CH2O               2   498.000     3.590     0.000     0.000     2.000          
CO2                1   244.000     3.763     0.000     2.650     2.100          
CH4                2   141.400     3.746     0.000     2.600    13.000          
C2H2               1   209.000     4.100     0.000     0.000     2.500          
C2H4               2   280.800     3.971     0.000     0.000     1.500          
CH2CO              2   436.000     3.970     0.000     0.000     2.000          
C2H6               2   252.300     4.302     0.000     0.000     1.500          
C                  0    71.400     3.298     0.000     0.000     0.000          
CH                 1    80.000     2.750     0.000     0.000     0.000          
HCO                2   498.000     3.590     0.000     0.000     0.000          
TXCH2              1   144.000     3.800     0.000     0.000     0.000          
SXCH2              1   144.000     3.800     0.000     0.000     0.000          
C2H3               2   209.000     4.100     0.000     0.000     1.000          
C2H5               2   252.300     4.302     0.000     0.000     1.500          
HCCO               2   150.000     2.500     0.000     0.000     1.000          
CH3CHO             2   436.000     3.970     0.000     0.000     2.000          
CH2CHO             2   436.000     3.970     0.000     0.000     2.000          
C2H5O              2   470.600     4.410     0.000     0.000     1.500          
END
REACTIONS
2.000000000H+M<=>H2+M                    1.780e+18   -1.000      0.00
H2/0.00/ H2O/0.00/ C/0.00/ CH/0.00/ HCO/0.00/ TXCH2/0.00/ CO2/0.00/ SXCH2/0.00/ 
CH4/2.00/ C2H3/0.00/ C2H5/0.00/ HCCO/0.00/ CH3CHO/0.00/ CH2CHO/0.00/ 
C2H5O/0.00/ C2H6/3.00/ 
2.000000000H+H2<=>2.000000000H2          9.000e+16   -0.600      0.00
O+H2<=>H+OH                              4.590e+04    2.700   6259.56
H+O+M<=>OH+M                             9.430e+18   -1.000      0.00
H2/2.00/ H2O/12.00/ C/0.00/ CO/1.75/ CH/0.00/ HCO/0.00/ TXCH2/0.00/ CO2/3.60/ 
SXCH2/0.00/ CH4/2.00/ C2H3/0.00/ C2H5/0.00/ HCCO/0.00/ CH3CHO/0.00/ CH2CHO/0.00/ 
C2H5O/0.00/ C2H6/3.00/ 
2.000000000O+M<=>O2+M                    1.200e+17   -1.000      0.00
H2/2.40/ H2O/15.40/ C/0.00/ CO/1.75/ CH/0.00/ HCO/0.00/ TXCH2/0.00/ CO2/3.60/ 
SXCH2/0.00/ CH4/2.00/ C2H3/0.00/ C2H5/0.00/ HCCO/0.00/ CH3CHO/0.00/ CH2CHO/0.00/ 
C2H5O/0.00/ C2H6/3.00/ 
2.000000000OH(+M)<=>H2O2(+M)             1.110e+14   -0.370      0.00
H2/2.00/ H2O/12.00/ C/0.00/ CO/1.75/ CH/0.00/ HCO/0.00/ TXCH2/0.00/ CO2/3.60/ 
SXCH2/0.00/ CH4/2.00/ C2H3/0.00/ C2H5/0.00/ HCCO/0.00/ CH3CHO/0.00/ CH2CHO/0.00/ 
C2H5O/0.00/ C2H6/3.00/ 
     LOW  /  2.010e+17   -0.580  -2292.07 /
     TROE/  0.7346    94.00   1756.00   5182.00 /
H+OH+M<=>H2O+M                           4.400e+22   -2.000      0.00
H2/2.00/ H2O/6.30/ C/0.00/ CO/1.75/ CH/0.00/ HCO/0.00/ TXCH2/0.00/ CO2/3.60/ 
SXCH2/0.00/ CH4/2.00/ C2H3/0.00/ C2H5/0.00/ HCCO/0.00/ CH3CHO/0.00/ CH2CHO/0.00/ 
C2H5O/0.00/ C2H6/3.00/ 
2.000000000OH<=>O+H2O                    3.970e+04    2.400  -2110.42
OH+H2<=>H+H2O                            1.730e+08    1.510   3429.73
2.000000000H+H2O<=>H2+H2O                5.620e+19   -1.250      0.00
H+O2(+M)<=>HO2(+M)                       5.120e+12    0.440      0.00
H2/0.75/ O2/0.85/ H2O/11.89/ C/0.00/ CO/1.09/ CH/0.00/ HCO/0.00/ TXCH2/0.00/ 
CO2/2.18/ SXCH2/0.00/ C2H3/0.00/ C2H5/0.00/ HCCO/0.00/ CH3CHO/0.00/ CH2CHO/0.00/ 
C2H5O/0.00/ 
     LOW  /  6.330e+19   -1.400      0.00 /
!     FCCHECK/  0.5000      0.00 0.5000 10000000000.00 0.0000      0.00
     TROE/     0.5     0.00 10000000000.00        /
H+O2<=>O+OH                              2.640e+16   -0.670  17041.11
H2+O2<=>HO2+H                            5.920e+05    2.430  53501.43
HO2+OH<=>H2O+O2                          2.380e+13    0.000   -499.52
     DUPLICATE
HO2+H<=>2.000000000OH                    7.490e+13    0.000    635.76
HO2+O<=>OH+O2                            4.000e+13    0.000      0.00
HO2+H<=>O+H2O                            3.970e+12    0.000    671.61
HO2+OH<=>H2O+O2                          1.000e+16    0.000  17330.31
     DUPLICATE
H2O2+O<=>HO2+OH                          9.630e+06    2.000   3969.89
H2O2+H<=>H2O+OH                          2.410e+13    0.000   3969.89
H2O2+H<=>HO2+H2                          6.050e+06    2.000   5200.76
H2O2+OH<=>HO2+H2O                        2.670e+41   -7.000  37600.38
     DUPLICATE
H2O2+OH<=>HO2+H2O                        2.000e+12    0.000    427.82
     DUPLICATE
C+O2<=>CO+O                              5.800e+13    0.000    576.00
C+OH<=>CO+H                              5.000e+13    0.000      0.00
CH+OH<=>HCO+H                            3.000e+13    0.000      0.00
CH+H2<=>TXCH2+H                          1.080e+14    0.000   3109.46
CH+O<=>CO+H                              5.700e+13    0.000      0.00
CH+O2<=>HCO+O                            6.710e+13    0.000      0.00
CH+H<=>C+H2                              1.650e+14    0.000      0.00
CH+H2(+M)<=>CH3(+M)                      1.970e+12    0.430   -370.46
H2/2.00/ H2O/12.00/ C/0.00/ CO/1.75/ CH/0.00/ HCO/0.00/ TXCH2/0.00/ CO2/3.60/ 
SXCH2/0.00/ CH4/2.00/ C2H3/0.00/ C2H5/0.00/ HCCO/0.00/ CH3CHO/0.00/ CH2CHO/0.00/ 
C2H5O/0.00/ C2H6/3.00/ 
     LOW  /  4.820e+25   -2.800    590.34 /
     TROE/   0.578   122.00   2535.00   9365.00 /
CH+H2O<=>CH2O+H                          5.710e+12    0.000   -755.26
TXCH2+H(+M)<=>CH3(+M)                    6.000e+14    0.000      0.00
H2/2.00/ H2O/12.00/ C/0.00/ CO/1.75/ CH/0.00/ HCO/0.00/ TXCH2/0.00/ CO2/3.60/ 
SXCH2/0.00/ CH4/2.00/ C2H3/0.00/ C2H5/0.00/ HCCO/0.00/ CH3CHO/0.00/ CH2CHO/0.00/ 
C2H5O/0.00/ C2H6/3.00/ 
     LOW  /  1.040e+26   -2.760   1598.95 /
     TROE/   0.562    91.00   5836.00   8552.00 /
TXCH2+O2=>OH+H+CO                        5.000e+12    0.000   1500.96
TXCH2+O2<=>CH2O+O                        2.400e+12    0.000   1500.96
TXCH2+OH<=>CH2O+H                        2.000e+13    0.000      0.00
TXCH2+HO2<=>CH2O+OH                      2.000e+13    0.000      0.00
TXCH2+O2=>CO2+2.000000000H               5.800e+12    0.000   1500.96
TXCH2+OH<=>CH+H2O                        1.130e+07    2.000   2999.52
TXCH2+O<=>HCO+H                          8.000e+13    0.000      0.00
TXCH2+H2<=>H+CH3                         5.000e+05    2.000   7229.92
SXCH2+H2O<=>TXCH2+H2O                    3.000e+13    0.000      0.00
SXCH2+H<=>CH+H2                          3.000e+13    0.000      0.00
SXCH2+O2<=>H+OH+CO                       2.800e+13    0.000      0.00
SXCH2+O<=>CO+H2                          1.500e+13    0.000      0.00
SXCH2+O2<=>CO+H2O                        1.200e+13    0.000      0.00
SXCH2+H2<=>CH3+H                         7.000e+13    0.000      0.00
SXCH2+O<=>HCO+H                          1.500e+13    0.000      0.00
SXCH2+H2O=>H2+CH2O                       6.820e+10    0.250   -934.51
SXCH2+OH<=>CH2O+H                        3.000e+13    0.000      0.00
CH3+OH=>H2+CH2O                          8.000e+09    0.000  -1754.30
CH3+H2O2<=>CH4+HO2                       2.450e+04    2.470   5179.25
CH3+O2<=>CH2O+OH                         5.870e+11    0.000  13840.82
CH3+CH<=>C2H3+H                          3.000e+13    0.000      0.00
CH3+O<=>CH2O+H                           5.060e+13    0.000      0.00
CH3+C<=>C2H2+H                           5.000e+13    0.000      0.00
CH3+H(+M)<=>CH4(+M)                      6.920e+13    0.180      0.00
H2/2.00/ H2O/6.00/ C/0.00/ CO/1.50/ CH/0.00/ HCO/0.00/ TXCH2/0.00/ CO2/2.00/ 
SXCH2/0.00/ CH4/3.00/ C2H3/0.00/ C2H5/0.00/ HCCO/0.00/ CH3CHO/0.00/ CH2CHO/0.00/ 
C2H5O/0.00/ C2H6/3.00/ 
     LOW  /  3.470e+38   -6.300   5074.09 /
     TROE/   0.783    74.00   2941.00   6964.00 /
CH3+OH<=>TXCH2+H2O                       5.600e+07    1.600   5420.65
CH3+SXCH2<=>C2H4+H                       1.200e+13    0.000   -571.22
CH3+OH<=>SXCH2+H2O                       6.440e+17   -1.340   1417.30
2.000000000CH3<=>C2H5+H                  6.840e+12    0.100  10599.90
CH3+HO2<=>CH4+O2                         3.610e+12    0.000      0.00
CH3+TXCH2<=>C2H4+H                       1.000e+14    0.000      0.00
CH3+O=>H+H2+CO                           3.370e+13    0.000      0.00
CH4+CH<=>C2H4+H                          6.000e+13    0.000      0.00
CH4+SXCH2<=>2.000000000CH3               1.600e+13    0.000   -571.22
CH4+O<=>CH3+OH                           1.020e+09    1.500   8599.43
CH4+OH<=>CH3+H2O                         1.000e+08    1.600   3119.02
CH4+TXCH2<=>2.000000000CH3               2.460e+06    2.000   8269.60
CH4+H<=>CH3+H2                           6.600e+08    1.620  10841.30
TXCH2+CO(+M)<=>CH2CO(+M)                 8.100e+11    0.500   4510.04
H2/2.00/ H2O/12.00/ C/0.00/ CO/1.75/ CH/0.00/ HCO/0.00/ TXCH2/0.00/ CO2/3.60/ 
SXCH2/0.00/ CH4/2.00/ C2H3/0.00/ C2H5/0.00/ HCCO/0.00/ CH3CHO/0.00/ CH2CHO/0.00/ 
C2H5O/0.00/ C2H6/3.00/ 
     LOW  /  2.690e+33   -5.110   7096.08 /
     TROE/  0.5907   275.00   1226.00   5185.00 /
SXCH2+CO<=>TXCH2+CO                      9.000e+12    0.000      0.00
CO+O2<=>CO2+O                            1.120e+12    0.000  47700.76
CO+OH<=>CO2+H                            8.780e+10    0.030    -16.73
     DUPLICATE
CO+H2(+M)<=>CH2O(+M)                     4.300e+07    1.500  79600.86
H2/2.00/ H2O/12.00/ C/0.00/ CO/1.75/ CH/0.00/ HCO/0.00/ TXCH2/0.00/ CO2/3.60/ 
SXCH2/0.00/ CH4/2.00/ C2H3/0.00/ C2H5/0.00/ HCCO/0.00/ CH3CHO/0.00/ CH2CHO/0.00/ 
C2H5O/0.00/ C2H6/3.00/ 
     LOW  /  5.070e+27   -3.420  84349.90 /
     TROE/   0.932   197.00   1540.00  10300.00 /
CH+CO(+M)<=>HCCO(+M)                     5.000e+13    0.000      0.00
H2/2.00/ H2O/12.00/ C/0.00/ CO/1.75/ CH/0.00/ HCO/0.00/ TXCH2/0.00/ CO2/3.60/ 
SXCH2/0.00/ CH4/2.00/ C2H3/0.00/ C2H5/0.00/ HCCO/0.00/ CH3CHO/0.00/ CH2CHO/0.00/ 
C2H5O/0.00/ C2H6/3.00/ 
     LOW  /  2.690e+28   -3.740   1935.95 /
     TROE/  0.5757   237.00   1652.00   5069.00 /
CO+OH<=>CO2+H                            8.000e+11    0.140   7351.82
     DUPLICATE
CO+O(+M)<=>CO2(+M)                       1.360e+10    0.000   2385.28
H2/2.00/ H2O/12.00/ C/0.00/ CO/1.75/ CH/0.00/ HCO/0.00/ TXCH2/0.00/ CO2/3.60/ 
SXCH2/0.00/ CH4/2.00/ C2H3/0.00/ C2H5/0.00/ HCCO/0.00/ CH3CHO/0.00/ CH2CHO/0.00/ 
C2H5O/0.00/ C2H6/3.00/ 
     LOW  /  1.170e+24   -2.790   4192.16 /
!     FCCHECK/  0.0000      0.00 0.0000      0.00 1.0000      0.00
     TROE/       1     1.00 10000000.00 10000000.00 /
CO+HO2<=>CO2+OH                          3.010e+13    0.000  22999.52
HCO+H<=>CO+H2                            1.200e+14    0.000      0.00
HCO+H(+M)<=>CH2O(+M)                     1.090e+12    0.480   -260.52
H2/2.00/ H2O/12.00/ C/0.00/ CO/1.75/ CH/0.00/ HCO/0.00/ TXCH2/0.00/ CO2/3.60/ 
SXCH2/0.00/ CH4/2.00/ C2H3/0.00/ C2H5/0.00/ HCCO/0.00/ CH3CHO/0.00/ CH2CHO/0.00/ 
C2H5O/0.00/ C2H6/3.00/ 
     LOW  /  2.470e+24   -2.570    425.43 /
     TROE/  0.7824   271.00   2755.00   6570.00 /
CH3+HCO<=>CH3CHO                         5.000e+13    0.000      0.00
HCO+M<=>CO+H+M                           1.870e+17   -1.000  17000.48
H2/2.00/ H2O/0.00/ C/0.00/ CO/1.75/ CH/0.00/ HCO/0.00/ TXCH2/0.00/ CO2/3.60/ 
SXCH2/0.00/ CH4/2.00/ C2H3/0.00/ C2H5/0.00/ HCCO/0.00/ CH3CHO/0.00/ CH2CHO/0.00/ 
C2H5O/0.00/ C2H6/3.00/ 
HCO+H2O<=>CO+H+H2O                       2.240e+18   -1.000  17000.48
HCO+O<=>CO+OH                            3.000e+13    0.000      0.00
HCO+OH<=>CO+H2O                          3.020e+13    0.000      0.00
CH3+HCO<=>CH4+CO                         2.650e+13    0.000      0.00
HCO+O<=>CO2+H                            3.000e+13    0.000      0.00
HCO+O2<=>CO+HO2                          1.200e+10    0.810   -726.58
CH2O+H<=>HCO+H2                          5.740e+07    1.900   2741.40
CH2O+O<=>HCO+OH                          3.900e+13    0.000   3539.67
CH3+CH2O<=>CH4+HCO                       3.320e+03    2.810   5860.42
CH2O+OH<=>HCO+H2O                        3.430e+09    1.180   -446.94
CH2O+CH<=>CH2CO+H                        9.460e+13    0.000   -516.25
CH2O+O2<=>HCO+HO2                        1.000e+14    0.000  40000.00
CH2O+HO2<=>HCO+H2O2                      5.600e+06    2.000  12000.48
2.000000000H+CO2<=>H2+CO2                5.500e+20   -2.000      0.00
SXCH2+CO2<=>TXCH2+CO2                    7.000e+12    0.000      0.00
SXCH2+CO2<=>CH2O+CO                      1.400e+13    0.000      0.00
CH+CO2<=>HCO+CO                          1.900e+14    0.000  15791.11
C2H2+O<=>TXCH2+CO                        1.250e+07    2.000   1900.10
C2H2+OH<=>CH3+CO                         1.280e+09    0.730   2578.87
C2H2+H(+M)<=>C2H3(+M)                    1.710e+10    1.270   2707.93
H2/2.00/ H2O/12.00/ C/0.00/ CO/1.75/ CH/0.00/ HCO/0.00/ TXCH2/0.00/ CO2/3.60/ 
SXCH2/0.00/ CH4/2.00/ C2H3/0.00/ C2H5/0.00/ HCCO/0.00/ CH3CHO/0.00/ CH2CHO/0.00/ 
C2H5O/0.00/ C2H6/3.00/ 
     LOW  /  6.340e+31   -4.660   3781.07 /
!     FCCHECK/  0.2122 -10210.00 0.0000      1.00 0.0000      1.00
     TROE/  0.2122     1.00 -10210.00 /
C2H2+OH<=>CH2CO+H                        7.530e+06    1.550   2105.64
C2H2+O<=>HCCO+H                          8.100e+06    2.000   1900.10
C2H3+OH<=>C2H2+H2O                       5.000e+12    0.000      0.00
C2H3+O2<=>CH2CHO+O                       3.030e+11    0.290     11.95
C2H3+O<=>CH2CHO                          1.030e+13    0.210   -427.82
C2H3+H<=>C2H2+H2                         3.000e+13    0.000      0.00
C2H3+CH3<=>C2H2+CH4                      9.030e+12    0.000   -764.82
C2H3+O2<=>HCO+CH2O                       4.580e+16   -1.390   1015.77
C2H3+H(+M)<=>C2H4(+M)                    6.080e+12    0.270    279.64
H2/2.00/ H2O/12.00/ C/0.00/ CO/1.75/ CH/0.00/ HCO/0.00/ TXCH2/0.00/ CO2/3.60/ 
SXCH2/0.00/ CH4/2.00/ C2H3/0.00/ C2H5/0.00/ HCCO/0.00/ CH3CHO/0.00/ CH2CHO/0.00/ 
C2H5O/0.00/ C2H6/3.00/ 
     LOW  /  1.400e+30   -3.860   3319.79 /
     TROE/   0.782   207.50   2663.00   6095.00 /
C2H3+H2O2<=>C2H4+HO2                     1.210e+10    0.000   -595.12
C2H3+O2<=>C2H2+HO2                       1.340e+06    1.610   -384.80
C2H4+CH3<=>C2H3+CH4                      2.270e+05    2.000   9199.33
C2H4+H(+M)<=>C2H5(+M)                    1.370e+09    1.460   1355.16
H2/2.00/ H2O/12.00/ C/0.00/ CO/1.75/ CH/0.00/ HCO/0.00/ TXCH2/0.00/ CO2/3.60/ 
SXCH2/0.00/ CH4/2.00/ C2H3/0.00/ C2H5/0.00/ HCCO/0.00/ CH3CHO/0.00/ CH2CHO/0.00/ 
C2H5O/0.00/ C2H6/3.00/ 
     LOW  /  2.030e+39   -6.640   5769.60 /
     TROE/  -0.569   299.00  -9147.00    152.40 /
C2H4+O2=>CH3+CO2+H                       4.900e+12    0.420  75800.67
C2H4+OH<=>C2H3+H2O                       1.310e-01    4.200   -860.42
C2H4+OH<=>C2H5O                          3.750e+36   -7.800   7060.23
C2H4+O<=>CH2CHO+H                        7.660e+09    0.880   1140.06
C2H4+O<=>CH3+HCO                         3.890e+08    1.360    886.71
C2H4+O2<=>C2H3+HO2                       4.220e+13    0.000  62100.86
C2H4+H<=>C2H3+H2                         1.270e+05    2.750  11649.14
C2H4+O<=>TXCH2+CH2O                      7.150e+04    2.470    929.73
C2H5+HO2<=>C2H4+H2O2                     3.000e+11    0.000      0.00
C2H5+H(+M)<=>C2H6(+M)                    5.210e+17   -0.990   1579.83
H2/2.00/ H2O/12.00/ C/0.00/ CO/1.75/ CH/0.00/ HCO/0.00/ TXCH2/0.00/ CO2/3.60/ 
SXCH2/0.00/ CH4/2.00/ C2H3/0.00/ C2H5/0.00/ HCCO/0.00/ CH3CHO/0.00/ CH2CHO/0.00/ 
C2H5O/0.00/ C2H6/3.00/ 
     LOW  /  1.990e+41   -7.080   6684.99 /
     TROE/  0.8422   125.00   2219.00   6882.00 /
C2H5+HO2<=>C2H5O+OH                      3.100e+13    0.000      0.00
C2H5+O<=>C2H5O                           3.170e+13    0.030   -394.36
C2H5+H<=>C2H4+H2                         2.000e+12    0.000      0.00
C2H5+O2<=>C2H4+HO2                       1.920e+07    1.020  -2033.94
C2H5+HO2<=>C2H6+O2                       3.000e+11    0.000      0.00
C2H5+CH3<=>C2H4+CH4                      1.180e+04    2.450   2920.65
C2H6+SXCH2<=>C2H5+CH3                    4.000e+13    0.000   -549.71
C2H6+CH3<=>C2H5+CH4                      8.430e+14    0.000  22256.21
C2H6+O<=>C2H5+OH                         3.170e+01    3.800   3130.98
C2H6(+M)<=>2.000000000CH3(+M)            1.880e+50   -9.720 107342.26
H2/2.00/ H2O/12.00/ C/0.00/ CO/1.75/ CH/0.00/ HCO/0.00/ TXCH2/0.00/ CO2/3.60/ 
SXCH2/0.00/ CH4/2.00/ C2H3/0.00/ C2H5/0.00/ HCCO/0.00/ CH3CHO/0.00/ CH2CHO/0.00/ 
C2H5O/0.00/ C2H6/3.00/ 
     LOW  /  3.720e+65  -13.140 101579.83 /
     TROE/    0.39   100.00   1900.00   6000.00 /
C2H6+HO2<=>C2H5+H2O2                     2.610e+02    3.370  15913.00
C2H6+H<=>C2H5+H2                         1.700e+05    2.700   5740.92
C2H6+OH<=>C2H5+H2O                       1.610e+06    2.220    740.92
HCCO+O2<=>OH+2.000000000CO               4.200e+10    0.000    853.25
HCCO+O<=>H+2.000000000CO                 1.000e+14    0.000      0.00
HCCO+CH3<=>C2H4+CO                       5.000e+13    0.000      0.00
HCCO+H<=>SXCH2+CO                        1.000e+14    0.000      0.00
CH2CO+H<=>CH3+CO                         1.500e+09    1.380    614.24
CH2CO+TXCH2<=>C2H4+CO                    1.000e+12    0.000      0.00
CH2CO+O<=>HCCO+OH                        1.000e+13    0.000   7999.52
CH2CO+CH3<=>HCCO+CH4                     7.500e+12    0.000  12999.52
CH2CO+O<=>TXCH2+CO2                      1.750e+12    0.000   1350.38
CH2CO+CH3<=>C2H5+CO                      9.000e+10    0.000      0.00
CH2CO+OH<=>HCCO+H2O                      7.500e+12    0.000   2000.48
CH2CO+H<=>HCCO+H2                        5.000e+13    0.000   7999.52
CH2CO+TXCH2<=>HCCO+CH3                   3.600e+13    0.000  10999.04
CH2CHO+O<=>CH2O+HCO                      3.170e+13    0.030   -394.36
CH2CHO<=>CH2CO+H                         1.320e+34   -6.570  49457.46
CH2CHO+OH<=>H2O+CH2CO                    1.200e+13    0.000      0.00
CH2CHO+H<=>CH2CO+H2                      1.100e+13    0.000      0.00
CH2CHO+O2=>OH+CO+CH2O                    1.810e+10    0.000      0.00
CH2CHO<=>CH3+CO                          6.510e+34   -6.870  47194.07
CH2CHO+O2=>OH+2.000000000HCO             2.350e+10    0.000      0.00
CH2CHO+H<=>CH3+HCO                       2.200e+13    0.000      0.00
CH3CHO+O=>CH3+CO+OH                      2.920e+12    0.000   1809.27
CH3CHO+O2=>CH3+CO+HO2                    3.010e+13    0.000  39149.14
CH3CHO+OH=>CH3+CO+H2O                    2.340e+10    0.730  -1113.77
CH3CHO+H<=>CH2CHO+H2                     2.050e+09    1.160   2404.40
CH3CHO+H=>CH3+CO+H2                      2.050e+09    1.160   2404.40
CH3CHO+O<=>CH2CHO+OH                     2.920e+12    0.000   1809.27
CH3CHO+CH3=>CH3+CO+CH4                   2.720e+06    1.770   5920.17
CH3CHO+HO2=>CH3+CO+H2O2                  3.010e+12    0.000  11924.00
C2H5O<=>CH3+CH2O                         1.320e+20   -2.020  20750.48
C2H5O<=>CH3CHO+H                         5.450e+15   -0.690  22229.92
C2H5O+O2<=>CH3CHO+HO2                    2.290e+10    0.000    874.76
SXCH2+N2<=>TXCH2+N2                      1.500e+13    0.000    599.90
END
