! C3_41_MECH.DAT 
! FROM HENRY CURRAN
ELEMENTS
C H N O AR HE
!TO MODIFY
END
SPECIES
H         
H2        C           CH3COCH2O2H   C3H2
O         CH          CH3COCH2O     C3H5O
O2        C2H6        C2H3CHO       C3H6OOH1-2
OH        C2H5        C2H3CO        C3H6OOH1-3
H2O       C2H4        C2H5CHO       C3H6OOH2-1
C2H3      C2H5CO      C3H6OOH1-2O2
HO2       C2H2        CH3OCH3       C3H6OOH1-3O2
H2O2      C2H         CH3OCH2       C3H6OOH2-1O2
CH3CHO    CH3OCH2O2   C3H6OOH2-2
CO        CH3CO       CH2OCH2O2H    NC3H7O2H
CO2       CH2CHO      CH3OCH2O2H    IC3H7O2H
CH2O      CH2CO       CH3OCH2O      NC3H7O2
HCO       HCCO        O2CH2OCH2O2H  IC3H7O2
HO2CHO    HCCOH       HO2CH2OCHO    NC3H7O
O2CHO     CH3CO3H     OCH2OCHO      IC3H7O
HOCHO     CH3CO3      HOCH2OCO      C3H6O1-2
OCHO      CH3CO2      CH3OCHO       C3H6O1-3
HOCH2O2H  C2H5OH      CH3OCO        C3KET12
HOCH2O2   C2H5O       CH2OCHO       C3KET13
OCH2O2H   PC2H4OH     C3KET21
HOCH2O    SC2H4OH     C3H8          C3H51-23OOH
CH3OH     O2C2H4OH    IC3H7         C3H52-13OOH
CH2OH     C2H5O2H     NC3H7         C3H6OH
CH3O      C2H5O2      C3H6          HOC3H6O2
CH3O2H    C2H4O2H     C3H5-A        CH3CHCO
CH3O2     C2H4O1-2    C3H5-S        AC3H5OOH
CH4       C2H3O1-2    C3H5-T        C2H3OOH
CH3       CH3COCH3    C3H4-P        
CH2       CH3COCH2    C3H4-A        
CH2(S)    CH3COCH2O2  C3H3          
HE AR N2
END
THERMO ALL
   300.000  1000.000  5000.000
H                 120186H   1               G  0300.00   5000.00  1000.00      1
 0.02500000E+02 0.00000000E+00 0.00000000E+00 0.00000000E+00 0.00000000E+00    2
 0.02547163E+06-0.04601176E+01 0.02500000E+02 0.00000000E+00 0.00000000E+00    3
 0.00000000E+00 0.00000000E+00 0.02547163E+06-0.04601176E+01                   4
H2                121286H   2               G  0300.00   5000.00  1000.00      1
 0.02991423E+02 0.07000644E-02-0.05633829E-06-0.09231578E-10 0.01582752E-13    2
-0.08350340E+04-0.01355110E+02 0.03298124E+02 0.08249442E-02-0.08143015E-05    3
-0.09475434E-09 0.04134872E-11-0.01012521E+05-0.03294094E+02                   4
C                       C   1               G  0300.00   5000.00  1000.00      1
 0.02602087E+02-0.01787081E-02 0.09087041E-06-0.01149933E-09 0.03310844E-14    2
 0.08542154E+06 0.04195177E+02 0.02498585E+02 0.08085777E-03-0.02697697E-05    3
 0.03040729E-08-0.01106652E-11 0.08545878E+06 0.04753459E+02                   4
CH3COCH2O2H 2/14/95     C   3H   6O   3    0G   300.000  5000.000 1381.00     41
 1.52372810E+01 1.44114651E-02-5.01290009E-06 7.87071229E-10-4.60225784E-14    2
-4.27564444E+04-4.77383784E+01 4.94789761E+00 3.60474432E-02-2.21719933E-05    3
 6.98296874E-09-9.21269260E-13-3.88687178E+04 8.49926130E+00                   4
C3H2              102193H   2C   3          G  0150.00   4000.00  1000.00      1
 0.07670981E+02 0.02748749E-01-0.04370943E-05-0.06455599E-09 0.01663887E-12    2
 0.06259722E+06-0.01236890E+03 0.03166714E+02 0.02482572E+00-0.04591637E-03    3
 0.04268019E-06-0.01482152E-09 0.06350421E+06 0.08869446E+02                   4
O                 120186O   1               G  0300.00   5000.00  1000.00      1
 0.02542060E+02-0.02755062E-03-0.03102803E-07 0.04551067E-10-0.04368052E-14    2
 0.02923080E+06 0.04920308E+02 0.02946429E+02-0.01638166E-01 0.02421032E-04    3
-0.01602843E-07 0.03890696E-11 0.02914764E+06 0.02963995E+02                   4
CH                121286C   1H   1          G  0300.00   5000.00  1000.00      1
 0.02196223E+02 0.02340381E-01-0.07058201E-05 0.09007582E-09-0.03855040E-13    2
 0.07086723E+06 0.09178373E+02 0.03200202E+02 0.02072876E-01-0.05134431E-04    3
 0.05733890E-07-0.01955533E-10 0.07045259E+06 0.03331588E+02                   4
CH3COCH2O  4/ 3/ 0 THERMC   3H   5O   2    0G   300.000  5000.000 1370.000    21
 1.14637586E+01 1.32124342E-02-4.56580495E-06 7.13897538E-10-4.16281047E-14    2
-2.23833017E+04-3.15127868E+01 3.72927689E+00 2.63943697E-02-1.09796486E-05    3
 8.58185303E-10 3.39474590E-13-1.91551565E+04 1.18505335E+01                   4
C3H5O      7/20/95 THERMC   3H   5O   1    0G   300.000  5000.000 1380.000    11
 1.02551752E+01 1.14983720E-02-3.84645659E-06 5.88910346E-10-3.38557923E-14    2
 6.26560810E+03-2.77655042E+01 1.19822582E+00 3.05579837E-02-1.80630276E-05    3
 4.86150033E-09-4.19854562E-13 9.58217784E+03 2.15566221E+01                   4
O2                121386O   2               G  0300.00   5000.00  1000.00      1
 0.03697578E+02 0.06135197E-02-0.01258842E-05 0.01775281E-09-0.01136435E-13    2
-0.01233930E+05 0.03189166E+02 0.03212936E+02 0.01127486E-01-0.05756150E-05    3
 0.01313877E-07-0.08768554E-11-0.01005249E+05 0.06034738E+02                   4
C2H6       1/14/95 THERMC   2H   6    0    0G   300.000  5000.000 1384.000    11
 6.10683385E+00 1.29236361E-02-4.42527196E-06 6.87391726E-10-3.98901732E-14    2
-1.37500014E+04-1.30081250E+01-2.52854344E-02 2.40764754E-02-1.11893472E-05    3
 2.08340901E-09-5.29868616E-14-1.12345534E+04 2.11648750E+01                   4
C2H3CHO    6/26/95 THERMC   3H   4O   1    0G   300.000  5000.000 1393.000    11
 1.04184959E+01 9.48963321E-03-3.29310529E-06 5.16279203E-10-3.01587291E-14    2
-1.49630281E+04-3.07235061E+01 2.92355162E-01 3.54321417E-02-2.94936324E-05    3
 1.28100124E-08-2.26144108E-12-1.16521584E+04 2.28878280E+01                   4
C3H6OOH1-2 7/19/ 0 THERMC   3H   7O   2    0G   300.000  5000.000 1402.000    41
 1.24605763E+01 1.58889526E-02-5.32742106E-06 8.15818791E-10-4.68723250E-14    2
-4.20305196E+03-3.23858947E+01 2.87774562E+00 3.74166999E-02-2.36058063E-05    3
 7.79930860E-09-1.06042562E-12-7.82368119E+02 1.93941340E+01                   4
OH         7/13/ 0 RUCICH   1O   1    0    0G   300.000  5000.000 1710.000    01
 2.85376040E+00 1.02994334E-03-2.32666477E-07 1.93750704E-11-3.15759847E-16    2
 3.69949720E+03 5.78756825E+00 3.41896226E+00 3.19255801E-04-3.08292717E-07    3
 3.64407494E-10-1.00195479E-13 3.45264448E+03 2.54433372E+00                   4
C2H5               12387C   2H   5          G  0300.00   5000.00  1000.00      1
 0.07190480E+02 0.06484077E-01-0.06428065E-05-0.02347879E-08 0.03880877E-12    2
 0.01067455E+06-0.01478089E+03 0.02690702E+02 0.08719133E-01 0.04419839E-04    3
 0.09338703E-08-0.03927773E-10 0.01287040E+06 0.01213820E+03                   4
C2H3CO     4/ 3/ 0 THERMC   3H   3O   1    0G   300.000  5000.000 1402.000    01
 9.37467676E+00 7.91296900E-03-2.67198280E-06 4.11115430E-10-2.36978981E-14    2
 1.92969514E+03-2.40892696E+01 1.36242013E+00 3.15273972E-02-3.00218935E-05    3
 1.48167112E-08-2.87971530E-12 4.25770215E+03 1.72626546E+01                   4
C3H6OOH1-3 7/19/ 0 THERMC   3H   7O   2    0G   300.000  5000.000 1384.000    41
 1.46881564E+01 1.49941200E-02-5.24056505E-06 8.25462711E-10-4.83758952E-14    2
-4.77342863E+03-4.77984492E+01 1.88331465E+00 4.40156051E-02-3.07858462E-05    3
 1.13214862E-08-1.75323184E-12-1.68779168E+02 2.14040621E+01                   4
H2O                20387H   2O   1          G  0300.00   5000.00  1000.00      1
 0.02672146E+02 0.03056293E-01-0.08730260E-05 0.01200996E-08-0.06391618E-13    2
-0.02989921E+06 0.06862817E+02 0.03386842E+02 0.03474982E-01-0.06354696E-04    3
 0.06968581E-07-0.02506588E-10-0.03020811E+06 0.02590233E+02                   4
C2H4              121286C   2H   4          G  0300.00   5000.00  1000.00      1
 0.03528419E+02 0.01148518E+00-0.04418385E-04 0.07844601E-08-0.05266848E-12    2
 0.04428289E+05 0.02230389E+02-0.08614880E+01 0.02796163E+00-0.03388677E-03    3
 0.02785152E-06-0.09737879E-10 0.05573046E+05 0.02421149E+03                   4
C2H5CHO    6/26/95 THERMC   3H   6O   1    0G   300.000  5000.000 1378.000    21
 1.02427695E+01 1.39641989E-02-4.76248001E-06 7.38105706E-10-4.27759503E-14    2
-2.74143135E+04-2.85346843E+01 2.16308444E+00 2.95501264E-02-1.52446252E-05    3
 3.49503947E-09-2.38896627E-13-2.42260137E+04 1.61153348E+01                   4
C3H6OOH2-1 7/19/ 0 THERMC   3H   7O   2    0G   300.000  5000.000 1407.000    41
 1.42163221E+01 1.43382450E-02-4.78004477E-06 7.29133134E-10-4.17761973E-14    2
-5.67381620E+03-4.35770997E+01 2.09193950E+00 4.69220394E-02-3.90280831E-05    3
 1.72381453E-08-3.07968979E-12-1.89377918E+03 2.00178282E+01                   4
C2H3               12787C   2H   3          G  0300.00   5000.00  1000.00      1
 0.05933468E+02 0.04017746E-01-0.03966740E-05-0.01441267E-08 0.02378644E-12    2
 0.03185435E+06-0.08530313E+02 0.02459276E+02 0.07371476E-01 0.02109873E-04    3
-0.01321642E-07-0.01184784E-10 0.03335225E+06 0.01155620E+03                   4
C2H5CO     6/26/95 THERMC   3H   5O   1    0G   300.000  5000.000 1373.000    21
 9.87881997E+00 1.17515676E-02-4.00614923E-06 6.20850617E-10-3.59835225E-14    2
-8.47292283E+03-2.49235196E+01 2.93313946E+00 2.47427911E-02-1.21222003E-05    3
 2.34701048E-09-5.26843338E-14-5.69663063E+03 1.35958355E+01                   4
C3H6OOH1-2O2 7/19/ 0 TRMC   3H   7O   4    0G   300.000  5000.000 1386.000    51
 1.91759159E+01 1.59857013E-02-5.61306378E-06 8.86880495E-10-5.20877040E-14    2
-2.64412115E+04-6.77512936E+01 2.65196584E+00 5.74638149E-02-4.72190867E-05    3
 2.05591557E-08-3.68787387E-12-2.08829371E+04 2.01547955E+01                   4
HO2               L 5/89H   1O   2          G   200.000  3500.000  1000.000    1
 4.01721090E+00 2.23982013E-03-6.33658150E-07 1.14246370E-10-1.07908535E-14    2
 1.11856713E+02 3.78510215E+00 4.30179801E+00-4.74912051E-03 2.11582891E-05    3
-2.42763894E-08 9.29225124E-12 2.94808040E+02 3.71666245E+00                   4
C2H2              121386C   2H   2          G  0300.00   5000.00  1000.00      1
 0.04436770E+02 0.05376039E-01-0.01912817E-04 0.03286379E-08-0.02156710E-12    2
 0.02566766E+06-0.02800338E+02 0.02013562E+02 0.01519045E+00-0.01616319E-03    3
 0.09078992E-07-0.01912746E-10 0.02612444E+06 0.08805378E+02                   4
CH3OCH3    7/20/98 THERMC   2H   6O   1    0G   300.000  5000.000 1368.000    21
 8.27745836E+00 1.32135539E-02-4.53264362E-06 7.05316507E-10-4.09933283E-14    2
-2.61982700E+04-2.15190894E+01 1.50763450E+00 2.39914228E-02-8.68910500E-06    3
-9.66835762E-11 4.89319361E-13-2.32810894E+04 1.67317297E+01                   4
C3H6OOH1-3O2 7/19/ 0 TRMC   3H   7O   4    0G   300.000  5000.000 1382.000    51
 1.85916698E+01 1.65328553E-02-5.81343626E-06 9.19396939E-10-5.40320702E-14    2
-2.39598698E+04-6.42544402E+01 3.14864588E+00 5.33542571E-02-4.08330611E-05    3
 1.67542220E-08-2.89288326E-12-1.85473645E+04 1.86305431E+01                   4
H2O2              120186H   2O   2          G  0300.00   5000.00  1000.00      1
 0.04573167E+02 0.04336136E-01-0.01474689E-04 0.02348904E-08-0.01431654E-12    2
-0.01800696E+06 0.05011370E+01 0.03388754E+02 0.06569226E-01-0.01485013E-05    3
-0.04625806E-07 0.02471515E-10-0.01766315E+06 0.06785363E+02                   4
C2H                81193C   2H   1          G  0300.00   4000.00  1000.00      1
 0.03986367E+02 0.03143123E-01-0.01267243E-04 0.02924363E-08-0.02716320E-12    2
 0.06655884E+06 0.01191063E+02 0.02737704E+02 0.08048446E-01-0.09244310E-04    3
 0.06525259E-07-0.01939580E-10 0.06683813E+06 0.07300220E+02                   4
CH3OCH2    7/20/98 THERMC   2H   5O   1    0G   300.000  5000.000 1376.000    21
 8.17137842E+00 1.10086181E-02-3.82352277E-06 5.99637202E-10-3.50317513E-14    2
-3.41941605E+03-1.78650856E+01 2.91327415E+00 2.03364659E-02-9.59712342E-06    3
 2.07478525E-09-1.71343362E-13-1.18844240E+03 1.16066817E+01                   4
C3H6OOH2-1O2 7/19/ 0 TRMC   3H   7O   4    0G   300.000  5000.000 1386.000    51
 1.91759159E+01 1.59857013E-02-5.61306378E-06 8.86880495E-10-5.20877040E-14    2
-2.64412115E+04-6.77512936E+01 2.65196584E+00 5.74638149E-02-4.72190867E-05    3
 2.05591557E-08-3.68787387E-12-2.08829371E+04 2.01547955E+01                   4
CH3CHO            120186C   2O   1H   4     G  0300.00   5000.00  1000.00      1
 0.05868650E+02 0.01079424E+00-0.03645530E-04 0.05412912E-08-0.02896844E-12    2
-0.02264569E+06-0.06012946E+02 0.02505695E+02 0.01336991E+00 0.04671953E-04    3
-0.01128140E-06 0.04263566E-10-0.02124589E+06 0.01335089E+03                   4
CH3OCH2O2  7/20/98 THERMC   2H   5O   3    0G   300.000  5000.000 1389.000    31
 1.24249729E+01 1.18705986E-02-4.07906532E-06 6.35310809E-10-3.69427867E-14    2
-2.29679238E+04-3.53740145E+01 2.21029612E+00 3.68877454E-02-2.82561555E-05    3
 1.15730533E-08-1.97130470E-12-1.94940940E+04 1.91463601E+01                   4
C3H6OOH2-2 7/19/ 0 THERMC   3H   7O   2    0G   300.000  5000.000 1407.000    41
 1.42163221E+01 1.43382450E-02-4.78004477E-06 7.29133134E-10-4.17761973E-14    2
-5.67381620E+03-4.35770997E+01 2.09193950E+00 4.69220394E-02-3.90280831E-05    3
 1.72381453E-08-3.07968979E-12-1.89377918E+03 2.00178282E+01                   4
CO                121286C   1O   1          G  0300.00   5000.00  1000.00      1
 0.03025078E+02 0.01442689E-01-0.05630828E-05 0.01018581E-08-0.06910952E-13    2
-0.01426835E+06 0.06108218E+02 0.03262452E+02 0.01511941E-01-0.03881755E-04    3
 0.05581944E-07-0.02474951E-10-0.01431054E+06 0.04848897E+02                   4
CH3CO             120186C   2H   3O   1     G  0300.00   5000.00  1000.00      1
 0.05612279E+02 0.08449886E-01-0.02854147E-04 0.04238376E-08-0.02268404E-12    2
-0.05187863E+05-0.03274949E+02 0.03125278E+02 0.09778220E-01 0.04521448E-04    3
-0.09009462E-07 0.03193718E-10-0.04108508E+05 0.01122885E+03                   4
CH2OCH2O2H 7/20/98 THERMC   2H   5O   3    0G   300.000  5000.000 1393.000    41
 1.51191783E+01 9.23718883E-03-3.19127505E-06 4.99114678E-10-2.91162488E-14    2
-1.84114867E+04-4.85706618E+01 2.52895507E+00 4.24128290E-02-3.73406386E-05    3
 1.66639333E-08-2.96443312E-12-1.44293306E+04 1.76899251E+01                   4
NC3H7O2H   7/19/ 0 THERMC   3H   8O   2    0G   300.000  5000.000 1385.000    41
 1.50895501E+01 1.71714707E-02-5.98498879E-06 9.40964412E-10-5.50728381E-14    2
-2.98352445E+04-5.28090166E+01 1.13366696E+00 4.84919904E-02-3.31801457E-05    3
 1.19308278E-08-1.80905372E-12-2.47845493E+04 2.27256088E+01                   4
CO2               121286C   1O   2          G  0300.00   5000.00  1000.00      1
 0.04453623E+02 0.03140169E-01-0.01278411E-04 0.02393997E-08-0.01669033E-12    2
-0.04896696E+06-0.09553959E+01 0.02275725E+02 0.09922072E-01-0.01040911E-03    3
 0.06866687E-07-0.02117280E-10-0.04837314E+06 0.01018849E+03                   4
CH2CHO            110393O   1H   3C   2     G  0300.00   5000.00  1000.00      1
 0.05975670E+02 0.08130591E-01-0.02743624E-04 0.04070304E-08-0.02176017E-12    2
 0.04903218E+04-0.05045251E+02 0.03409062E+02 0.01073857E+00 0.01891492E-04    3
-0.07158583E-07 0.02867385E-10 0.01521477E+05 0.09558290E+02                   4
CH3OCH2O2H 7/20/98 THERMC   2H   6O   3    0G   300.000  5000.000 1392.000    41
 1.49370964E+01 1.19465829E-02-4.12746359E-06 6.45422590E-10-3.76427939E-14    2
-4.11001068E+04-4.99552737E+01 1.19855761E+00 4.59060764E-02-3.66252420E-05    3
 1.49318970E-08-2.46057445E-12-3.65363161E+04 2.31339904E+01                   4
IC3H7O2H   7/19/ 0 THERMC   3H   8O   2    0G   300.000  5000.000 1389.000    41
 1.57046391E+01 1.65924516E-02-5.77250934E-06 9.06453070E-10-5.30084111E-14    2
-3.23268564E+04-5.71735156E+01 5.19265570E-01 5.32111228E-02-4.05156892E-05    3
 1.63346713E-08-2.73751233E-12-2.71048486E+04 2.40815065E+01                   4
CH2O              121286C   1H   2O   1     G  0300.00   5000.00  1000.00      1
 0.02995606E+02 0.06681321E-01-0.02628955E-04 0.04737153E-08-0.03212517E-12    2
-0.01532037E+06 0.06912572E+02 0.01652731E+02 0.01263144E+00-0.01888168E-03    3
 0.02050031E-06-0.08413237E-10-0.01486540E+06 0.01378482E+03                   4
CH2CO             121686C   2H   2O   1     G  0300.00   5000.00  1000.00      1
 0.06038817E+02 0.05804840E-01-0.01920954E-04 0.02794485E-08-0.01458868E-12    2
-0.08583402E+05-0.07657581E+02 0.02974971E+02 0.01211871E+00-0.02345046E-04    3
-0.06466685E-07 0.03905649E-10-0.07632637E+05 0.08673553E+02                   4
CH3OCH2O   2/ 9/96 THERMC   2H   5O   2    0G   300.000  5000.000 2012.000    21
 8.60261845E+00 1.35772195E-02-4.84661602E-06 7.77766193E-10-4.62633624E-14    2
-2.13762444E+04-1.75775023E+01 3.25889339E+00 2.22146359E-02-7.78556340E-06    3
-2.41484158E-10 4.51914496E-13-1.92377212E+04 1.23680069E+01                   4
NC3H7O2    7/19/ 0 THERMC   3H   7O   2    0G   300.000  5000.000 1384.000    31
 1.26327059E+01 1.69910726E-02-5.88866873E-06 9.22195396E-10-5.38230675E-14    2
-1.19194652E+04-3.85349297E+01 2.10731492E+00 3.96164986E-02-2.49491599E-05    3
 8.59450300E-09-1.31240330E-12-7.93745567E+03 1.89082748E+01                   4
HCO               121286H   1C   1O   1     G  0300.00   5000.00  1000.00      1
 0.03557271E+02 0.03345573E-01-0.01335006E-04 0.02470573E-08-0.01713851E-12    2
 0.03916324E+05 0.05552299E+02 0.02898330E+02 0.06199147E-01-0.09623084E-04    3
 0.01089825E-06-0.04574885E-10 0.04159922E+05 0.08983614E+02                   4
HCCO               32387H   1C   2O   1     G  0300.00   4000.00  1000.00      1
 0.06758073E+02 0.02000400E-01-0.02027607E-05-0.01041132E-08 0.01965165E-12    2
 0.01901513E+06-0.09071262E+02 0.05047965E+02 0.04453478E-01 0.02268283E-05    3
-0.01482095E-07 0.02250742E-11 0.01965892E+06 0.04818439E+01                   4
O2CH2OCH2O2H 7/20/98 TRMC   2H   5O   5    0G   300.000  5000.000 1402.000    51
 1.92038046E+01 1.04394841E-02-3.60582939E-06 5.63792843E-10-3.28807214E-14    2
-3.79207055E+04-6.51847273E+01 1.99640551E+00 5.83226232E-02-5.53259778E-05    3
 2.59810540E-08-4.77141005E-12-3.27628742E+04 2.44215005E+01                   4
IC3H7O2    7/19/ 0 THERMC   3H   7O   2    0G   300.000  5000.000 1388.000    31
 1.32493493E+01 1.64082190E-02-5.67432062E-06 8.87336340E-10-5.17361535E-14    2
-1.44109855E+04-4.29066213E+01 1.49941639E+00 4.43081205E-02-3.22414456E-05    3
 1.29687136E-08-2.23370569E-12-1.02587980E+04 2.02336490E+01                   4
HO2CHO     6/26/95 THERMC   1H   2O   3    0G   300.000  5000.000 1378.00     21
 9.87503878E+00 4.64663708E-03-1.67230522E-06 2.68624413E-10-1.59595232E-14    2
-3.80502496E+04-2.24939155E+01 2.42464726E+00 2.19706380E-02-1.68705546E-05    3
 6.25612194E-09-9.11645843E-13-3.54828006E+04 1.75027796E+01                   4
HCCOH              32387H   2C   2O   1     G  0300.00   4000.00  1000.00      1
 0.07328324E+02 0.03336416E-01-0.03024705E-05-0.01781106E-08 0.03245168E-12    2
 0.07598258E+05-0.01401214E+03 0.03899465E+02 0.09701075E-01-0.03119309E-05    3
-0.05537732E-07 0.02465732E-10 0.08701190E+05 0.04491875E+02                   4
HO2CH2OCHO 8/31/99 THERMC   2H   4O   4    0G   300.000  5000.000 1387.000    41
 1.64584298E+01 8.52683511E-03-3.04113500E-06 4.85596908E-10-2.87316334E-14    2
-6.23959608E+04-5.38924139E+01 3.47935703E+00 4.02952392E-02-3.30109296E-05    3
 1.34360117E-08-2.18601580E-12-5.80629934E+04 1.52521392E+01                   4
NC3H7O     4/ 7/97 THERMC   3H   7O   1    0G   300.000  5000.000 1390.000    21
 1.10130308E+01 1.58110271E-02-5.38743215E-06 8.34264825E-10-4.83147349E-14    2
-1.01528968E+04-3.27511689E+01 2.89706514E-01 3.93075560E-02-2.48069355E-05    3
 8.07083573E-09-1.07998290E-12-6.24474269E+03 2.54387810E+01                   4
O2CHO      6/26/95 THERMC   1H   1O   3    0G   300.000  5000.000 1368.00     11
 7.24075139E+00 4.63312951E-03-1.63693995E-06 2.59706693E-10-1.52964699E-14    2
-1.87027618E+04-6.49547212E+00 3.96059309E+00 1.06002279E-02-5.25713351E-06    3
 1.01716726E-09-2.87487602E-14-1.73599383E+04 1.17807483E+01                   4
CH3CO3H    6/26/95 THERMC   2H   4O   3    0G   300.000  5000.000 1391.000    31
 1.25060485E+01 9.47789695E-03-3.30402246E-06 5.19630793E-10-3.04233568E-14    2
-4.59856703E+04-3.79195947E+01 2.24135876E+00 3.37963514E-02-2.53887482E-05    3
 9.67583587E-09-1.49266157E-12-4.24677831E+04 1.70668133E+01                   4
OCH2OCHO   4/ 9/98 THERMC   2H   3O   3    0G   300.000  5000.000 1475.000    21
 1.20233916E+01 8.11262659E-03-2.91356462E-06 4.67340384E-10-2.77375525E-14    2
-4.33647231E+04-3.33691809E+01 5.19690837E+00 1.58839723E-02 3.53540547E-07    3
-6.10456923E-09 1.94661801E-12-4.02242792E+04 6.11645828E+00                   4
IC3H7O     4/ 7/97 THERMC   3H   7O   1    0G   300.000  5000.000 1395.000    21
 1.14592753E+01 1.55902812E-02-5.34443227E-06 8.30858106E-10-4.82455289E-14    2
-1.24638531E+04-3.62203624E+01-1.00369576E-01 4.31118928E-02-3.10631817E-05    3
 1.20668364E-08-1.97214967E-12-8.44902998E+03 2.57650010E+01                   4
HOCHO      4/ 9/98 THERMC   1H   2O   2    0G   300.000  5000.000 1376.000    11
 6.68733013E+00 5.14289368E-03-1.82238513E-06 2.89719163E-10-1.70892199E-14    2
-4.83995400E+04-1.13104798E+01 1.43548185E+00 1.63363016E-02-1.06257421E-05    3
 3.32132977E-09-4.02176103E-13-4.64616504E+04 1.72885798E+01                   4
CH3CO3     4/ 3/ 0 THERMC   2H   3O   3    0G   300.000  5000.000 1391.000    21
 1.12522498E+01 8.33652672E-03-2.89014530E-06 4.52781734E-10-2.64354456E-14    2
-2.60238584E+04-2.96370457E+01 3.60373432E+00 2.70080341E-02-2.08293438E-05    3
 8.50541104E-09-1.43846110E-12-2.34205171E+04 1.12014914E+01                   4
HOCH2OCO   8/31/99 THERMC   2H   3O   3    0G   300.000  5000.000 1603.000    31
 1.13737391E+01 8.17663898E-03-2.92034021E-06 4.66695616E-10-2.76276823E-14    2
-4.65575743E+04-2.86035265E+01 6.08180801E+00 1.28768359E-02 2.04419418E-06    3
-6.10154921E-09 1.79820559E-12-4.39526183E+04 2.54054449E+00                   4
C3H6O1-2   1/22/95 THERMC   3H   6O   1    0G   300.000  5000.000 1379.00     41
 1.19825289E+01 1.23964696E-02-4.39113813E-06 6.97911182E-10-4.11585127E-14    2
-1.69739189E+04-4.22894035E+01-1.21988153E+00 4.28578772E-02-3.17530249E-05    3
 1.21763736E-08-1.94154303E-12-1.22953761E+04 2.88467826E+01                   4
OCHO       2/14/95 THERMC   1H   1O   2    0G   300.000  5000.000 1690.00     01
 6.12628782E+00 3.75602932E-03-1.42010352E-06 2.36429200E-10-1.44167651E-14    2
-2.17698466E+04-8.01574694E+00 1.35213452E+00 1.50082004E-02-1.09896141E-05    3
 3.73679840E-09-4.81014498E-13-2.02253647E+04 1.74373147E+01                   4
CH3CO2     2/14/95 THERMC   2H   3O   2    0G   300.000  5000.000 1395.000    11
 8.54059736E+00 8.32951214E-03-2.84722010E-06 4.41927196E-10-2.56373394E-14    2
-2.97290678E+04-2.03883545E+01 1.37440768E+00 2.49115604E-02-1.74308894E-05    3
 6.24799508E-09-9.09516835E-13-2.72330150E+04 1.81405454E+01                   4
CH3OCHO    8/31/99 THERMC   2H   4O   2    0G   300.000  5000.000 1686.000    21
 8.69123518E+00 1.15503122E-02-4.27782486E-06 7.02533059E-10-4.24333552E-14    2
-4.64364769E+04-1.89301478E+01 3.08839783E+00 2.03760048E-02-6.84777040E-06    3
-7.28186203E-10 5.62130216E-13-4.41855167E+04 1.25364719E+01                   4
C3H6O1-3   1/22/95 THERMC   3H   6O   1    0G   300.000  5000.000 2035.000    41
 1.02363953E+01 1.50514705E-02-5.63636534E-06 9.32463455E-10-5.66102441E-14    2
-1.46212029E+04-3.36724732E+01-2.75717996E+00 4.26371602E-02-2.56831231E-05    3
 6.62981208E-09-5.31193325E-13-1.00990375E+04 3.67181804E+01                   4
HOCH2O2H   4/ 9/98 THERMC   1H   4O   3    0G   300.000  5000.000 1422.000    31
 1.16303827E+01 7.15133688E-03-2.39035030E-06 3.65772791E-10-2.10199524E-14    2
-4.31079242E+04-3.24276725E+01 1.85716693E+00 3.23153132E-02-2.69928902E-05    3
 1.11694484E-08-1.81284103E-12-4.00314471E+04 1.90917729E+01                   4
C2H5OH     3/12/95 THERMC   2H   6O   1    0G   300.000  5000.000 1391.000    11
 7.95264841E+00 1.31574144E-02-4.43693359E-06 6.82201160E-10-3.93096335E-14    2
-3.23602958E+04-1.76537972E+01 4.23149045E-01 2.92858167E-02-1.73845099E-05    3
 5.33639892E-09-6.74917252E-13-2.95683054E+04 2.33538763E+01                   4
CH3OCO     8/31/99 THERMC   2H   3O   2    0G   300.000  5000.000 1601.000    21
 9.73659803E+00 7.42432713E-03-2.65641779E-06 4.25031143E-10-2.51824924E-14    2
-2.37525535E+04-2.35950854E+01 4.16215406E+00 1.38037511E-02-3.08486109E-07    3
-4.56430814E-09 1.46909632E-12-2.11640115E+04 8.68327214E+00                   4
C3KET12    7/19/ 0 THERMC   3H   6O   3    0G   300.000  5000.000 1388.000    41
 1.70756225E+01 1.31013491E-02-4.61949408E-06 7.31991329E-10-4.30788679E-14    2
-4.17008637E+04-5.95778952E+01 1.10507238E+00 5.27396706E-02-4.31805774E-05    3
 1.81618292E-08-3.10535568E-12-3.63627536E+04 2.54111636E+01                   4
HOCH2O2    4/ 9/98 THERMC   1H   3O   3    0G   300.000  5000.000 1412.000    21
 9.04545938E+00 7.15223373E-03-2.37005676E-06 3.60083481E-10-2.05750228E-14    2
-2.49414886E+04-1.74210530E+01 2.85441621E+00 2.33663535E-02-1.88115990E-05    3
 7.96709515E-09-1.36346618E-12-2.29866196E+04 1.51730565E+01                   4
C2H5O      3/12/95 THERMC   2H   5O   1    0G   300.000  5000.000 1389.000    11
 7.87339772E+00 1.13072907E-02-3.84421421E-06 5.94414105E-10-3.43894538E-14    2
-6.07274953E+03-1.73416790E+01 4.94420708E-01 2.71774434E-02-1.65909010E-05    3
 5.15204200E-09-6.48496915E-13-3.35252925E+03 2.28079378E+01                   4
CH2OCHO    4/20/99 THERMC   2H   3O   2    0G   300.000  5000.000 2018.000    21
 8.44397265E+00 8.81405857E-03-3.23029618E-06 5.26923491E-10-3.16806839E-14    2
-2.39555479E+04-1.50534594E+01 3.22498899E+00 1.90239604E-02-9.55384264E-06    3
 1.70721984E-09 8.54934709E-15-2.20531823E+04 1.35344729E+01                   4
C3KET13    7/19/ 0 THERMC   3H   6O   3    0G   300.000  5000.000 1379.000    41
 1.58927479E+01 1.40990923E-02-4.96118851E-06 7.84992198E-10-4.61488928E-14    2
-3.93774829E+04-5.26049341E+01 3.55241022E+00 4.18720270E-02-2.94550370E-05    3
 1.09982900E-08-1.75045977E-12-3.48902671E+04 1.42082894E+01                   4
OCH2O2H    4/ 9/98 THERMC   1H   3O   3    0G   300.000  5000.000 1420.000    21
 1.15398246E+01 5.34291432E-03-1.81878917E-06 2.81968625E-10-1.63584348E-14    2
-1.68237489E+04-3.20700633E+01 1.93823075E+00 3.01465730E-02-2.61053152E-05    3
 1.09463562E-08-1.78312692E-12-1.38166625E+04 1.85042002E+01                   4
PC2H4OH    3/12/95 THERMC   2H   5O   1     G  0300.00   5000.00  1391.00      1
 7.52241939E+00 1.10492715E-02-3.72576465E-06 5.72827397E-10-3.30061759E-14    2
-7.29333590E+03-1.24958732E+01 1.17714711E+00 2.48115685E-02-1.50299503E-05    3
 4.79006785E-09-6.40994211E-13-4.95369043E+03 2.20081586E+01                   4
C3KET21    7/19/ 0 THERMC   3H   6O   3    0G   300.000  5000.000 1371.000    41
 1.56377776E+01 1.44059342E-02-5.08808082E-06 8.07076119E-10-4.75295650E-14    2
-4.30657975E+04-5.13105869E+01 4.55686367E+00 3.57076837E-02-1.94712054E-05    3
 4.70695431E-09-3.69753807E-13-3.86710975E+04 9.97761694E+00                   4
HOCH2O     4/ 9/98 THERMC   1H   3O   2    0G   300.000  5000.000 1452.000    11
 6.39521515E+00 7.43673043E-03-2.50422354E-06 3.84879712E-10-2.21778689E-14    2
-2.25557758E+04-6.63865583E+00 4.11183145E+00 7.53850697E-03 3.77337370E-06    3
-5.38746005E-09 1.45615887E-12-2.12471918E+04 7.46807254E+00                   4
SC2H4OH    4/ 3/ 0 THERMC   2H   5O   1    0G   300.000  5000.000 1392.000    21
 7.83524517E+00 1.08808198E-02-3.68694127E-06 5.68601361E-10-3.28288951E-14    2
-1.07534311E+04-1.53495702E+01 1.91496477E+00 2.45693145E-02-1.63075399E-05    3
 6.12282361E-09-1.00784363E-12-8.62161551E+03 1.65987309E+01                   4
C3H8       9/23/ 3 THERMC   3H   8    0    0G   300.000  5000.000 1387.000    21
 9.30903615E+00 1.73199401E-02-5.92006308E-06 9.18549779E-10-5.32650089E-14    2
-1.78511121E+04-2.87649046E+01-2.93546760E-01 3.63870253E-02-1.95049623E-05    3
 4.95900425E-09-4.55919788E-13-1.41148884E+04 2.41087380E+01                   4
C3H51-23OOH  8/26/3 THRMC   3H   7O   4    0G   300.000  5000.000 1386.000    61
 2.12378169E+01 1.39519596E-02-4.94539222E-06 7.86381389E-10-4.63925564E-14    2
-1.92864584E+04-7.69636561E+01 2.55619708E+00 6.13504487E-02-5.23205391E-05    3
 2.28208029E-08-4.02231508E-12-1.31353414E+04 2.21043799E+01                   4
CH3OH             121686C   1H   4O   1     G  0300.00   5000.00  1000.00      1
 0.04029061E+02 0.09376593E-01-0.03050254E-04 0.04358793E-08-0.02224723E-12    2
-0.02615791E+06 0.02378196E+02 0.02660115E+02 0.07341508E-01 0.07170051E-04    3
-0.08793194E-07 0.02390570E-10-0.02535348E+06 0.01123263E+03                   4
O2C2H4OH   2/14/95 THERMC   2H   5O   3    0G   300.000  5000.000 1392.000    31
 1.07432659E+01 1.30957787E-02-4.45370088E-06 6.88548738E-10-3.98230113E-14    2
-2.55911274E+04-2.33254953E+01 4.11839445E+00 2.72240632E-02-1.60824430E-05    3
 5.17033408E-09-7.31610168E-13-2.30857785E+04 1.28482112E+01                   4
IC3H7      9/23/ 3 THERMC   3H   7    0    0G   300.000  5000.000 1373.000    21
 8.13395737E+00 1.58491369E-02-5.43036998E-06 8.43962002E-10-4.89971658E-14    2
 6.05301959E+03-1.90047184E+01 1.56896579E+00 2.41491224E-02-4.81474729E-06    3
-3.25539206E-09 1.25071492E-12 9.08600357E+03 1.88316438E+01                   4
C3H52-13OOH  8/26/3 THRMC   3H   7O   4    0G   300.000  5000.000 1379.000    61
 2.02817964E+01 1.48155431E-02-5.25503386E-06 8.35963453E-10-4.93308915E-14    2
-1.80085066E+04-7.22688262E+01 4.12253742E+00 5.19553611E-02-3.83733727E-05    3
 1.45851637E-08-2.29820536E-12-1.22759164E+04 1.48367359E+01                   4
CH2OH             120186H   3C   1O   1     G  0250.00   4000.00  1000.00      1
 0.06327520E+02 0.03608271E-01-0.03201547E-05-0.01938750E-08 0.03509705E-12    2
-0.04474509E+05-0.08329366E+02 0.02862628E+02 0.01001527E+00-0.05285436E-05    3
-0.05138540E-07 0.02246041E-10-0.03349679E+05 0.01039794E+03                   4
C2H5O2H    7/19/ 0 THERMC   2H   6O   2    0G   300.000  5000.000 1383.000    31
 1.19442992E+01 1.26271597E-02-4.41776755E-06 6.96327353E-10-4.08268961E-14    2
-2.57408634E+04-3.73382394E+01 1.29970294E+00 3.65488420E-02-2.52808875E-05    3
 9.19746803E-09-1.41362233E-12-2.18866647E+04 2.02719078E+01                   4