ELEMENTS
O  H  C  N
END

SPECIES
NC12H26          CH4              O2               N2
END

TRANS ALL
NC12H26            2   789.980     7.047     0.000     0.000     1.000          
O2                 1   107.400     3.458     0.000     1.600     3.800          
CH4                2   141.400     3.746     0.000     2.600    13.000          
N2                 1    97.530     3.621     0.000     1.760     4.000          
END

REACTIONS
END
