!****************************************************************************
! AN 88-SPECIES SKELETAL MECHANISM FOR N-HEPTANE OXIDATION
!
! REFERENCE: 
!
! YOO C.S., LU T.F., CHEN J.H. AND LAW C.K., 
! “DIRECT NUMERICAL SIMULATIONS OF IGNITION OF A LEAN N-HEPTANE/AIR MIXTURE 
!  WITH TEMPERATURE INHOMOGENEITIES AT CONSTANT VOLUME: PARAMETRIC STUDY,” 
!  COMBUSTION AND FLAME, DOI:10.1016/J.COMBUSTFLAME.2011.01.025, 2011.
!
!****************************************************************************
 
ELEMENTS
H C O N 
END

SPECIES
H	H2	O	O2
OH	H2O	CO	HCO
CO2	CH3	CH4	HO2
H2O2	CH2O	CH3O	C2H6
C2H4	C2H5	C2H2	C2H3
CH2CO	HCCO	CH3CO	CH2CHO
CH3CHO	C3H4-A	C3H6	C4H6
NC3H7	C4H7	C4H8-1	PC4H9
CH3COCH2	C2H5CHO	C2H5CO	C5H9
C5H10-1	C2H5O	CH3O2	CH3O2H
C2H3CO	C2H3CHO	C3H5O	C4H7O
C4H8OOH1-3O2	C4H8OOH1-3	PC4H9O2	C3H5-A
C3H3	C3H2	CH2(S)	NC4KET13
NC3H7CHO	NC3H7CO	C2H5COCH2	NC3H7COCH2
NC4H9CHO	NC4H9CO	NC7H16	C7H15-1
C7H15-2	C7H15-3	C7H15-4	C7H14-2
C7H14-3	C7H15O2-1	C7H15O2-2	C7H15O2-3
C7H15O2-4	C7H14OOH1-3	C7H14OOH2-3	C7H14OOH2-4
C7H14OOH3-2	C7H14OOH3-4	C7H14OOH3-5	C7H14OOH4-2
C7H14OOH4-3	C7H14OOH1-3O2	C7H14OOH2-4O2	C7H14OOH3-5O2
C7H14OOH4-2O2	C7H14O1-3	C7H14O2-4	NC7KET13
NC7KET24	NC7KET35	NC7KET42	N2
END


TRANS ALL
H                  0   145.000     2.050     0.000     0.000     0.000          
H2                 1    38.000     2.920     0.000     0.790   280.000          
O                  0    80.000     2.750     0.000     0.000     0.000          
O2                 1   107.400     3.458     0.000     1.600     3.800          
OH                 1    80.000     2.750     0.000     0.000     0.000          
H2O                2   572.400     2.605     1.844     0.000     4.000          
CO                 1    98.100     3.650     0.000     1.950     1.800          
HCO                2   498.000     3.590     0.000     0.000     0.000          
CO2                1   244.000     3.763     0.000     2.650     2.100          
CH3                1   144.000     3.800     0.000     0.000     0.000          
CH4                2   141.400     3.746     0.000     2.600    13.000          
HO2                2   107.400     3.458     0.000     0.000     1.000          
H2O2               2   107.400     3.458     0.000     0.000     3.800          
CH2O               2   498.000     3.590     0.000     0.000     2.000          
CH3O               2   417.000     3.690     1.700     0.000     2.000          
C2H6               2   247.500     4.350     0.000     0.000     1.500          
C2H4               2   238.400     3.496     0.000     0.000     1.500          
C2H5               2   247.500     4.350     0.000     0.000     1.500          
C2H2               1   265.300     3.721     0.000     0.000     2.500          
C2H3               2   265.300     3.721     0.000     0.000     1.000          
CH2CO              2   436.000     3.970     0.000     0.000     2.000          
HCCO               2   150.000     2.500     0.000     0.000     1.000          
CH3CO              2   436.000     3.970     0.000     0.000     2.000          
CH2CHO             2   436.000     3.970     0.000     0.000     2.000          
CH3CHO             2   436.000     3.970     0.000     0.000     2.000          
C3H4-A             1   324.800     4.290     0.000     0.000     1.000          
C3H6               2   307.800     4.140     0.000     0.000     1.000          
C4H6               2   357.000     4.720     0.000     0.000     1.000          
NC3H7              2   303.400     4.810     0.000     0.000     1.000          
C4H7               2   355.000     4.650     0.000     0.000     1.000          
C4H8-1             2   355.000     4.650     0.000     0.000     1.000          
PC4H9              2   352.000     5.240     0.000     0.000     1.000          
CH3COCH2           2   435.500     4.860     0.000     0.000     1.000          
C2H5CHO            2   435.2       4.662     2.7       0.0       1.0            
C2H5CO             2   424.600     4.820     0.000     0.000     1.000          
C5H9               2   396.8       5.458     0.0       0.0       1.0            
C5H10-1            2   386.2       5.489     0.4       0.0       1.0            
C2H5O              2   470.600     4.410     0.000     0.000     1.500          
CH3O2              2   481.800     3.626     0.000     0.000     1.000          
CH3O2H             2   481.800     3.626     0.000     0.000     1.000          
C2H3CO             2   443.200     4.120     0.000     0.000     1.000          
C2H3CHO            2   428.8       4.958     2.9       0.0       1.0            
C3H5O              2   411.000     4.820     0.000     0.000     1.000          
C4H7O              2   496.000     5.200     0.000     0.000     1.000          
C4H8OOH1-3O2       2   496.000     5.200     0.000     0.000     1.000          
C4H8OOH1-3         2   496.000     5.200     0.000     0.000     1.000          
PC4H9O2            2   496.000     5.200     0.000     0.000     1.000          
C3H5-A             2   316.000     4.220     0.000     0.000     1.000          
C3H3               1   324.800     4.290     0.000     0.000     1.000          
C3H2               2   209.000     4.100     0.000     0.000     1.000          
CH2(S)             1   144.000     3.800     0.000     0.000     0.000          
NC4KET13           2   476.0       5.778     2.6       0.0       1.0            
NC3H7CHO           2   464.2       5.009     2.6       0.0       1.0            
NC3H7CO            2   464.2       5.009     2.6       0.0       1.0            
C2H5COCH2          2   454.0       5.413     3.3       0.0       1.0            
NC3H7COCH2         2   489.084     5.348     0.000     0.000     0.000          
NC4H9CHO           2   476.0       5.778     2.6       0.0       1.0            
NC4H9CO            2   476.0       5.778     2.6       0.0       1.0            
NC7H16             2   459.6       6.253     0.0       0.0       1.0            
C7H15-1            2   459.6       6.253     0.0       0.0       1.0            
C7H15-2            2   459.6       6.253     0.0       0.0       1.0            
C7H15-3            2   459.6       6.253     0.0       0.0       1.0            
C7H15-4            2   459.6       6.253     0.0       0.0       1.0            
C7H14-2            2   457.8       6.173     0.3       0.0       1.0            
C7H14-3            2   457.8       6.173     0.3       0.0       1.0            
C7H15O2-1          2   561.0       6.317     1.7       0.0       1.0            
C7H15O2-2          2   561.0       6.317     1.7       0.0       1.0            
C7H15O2-3          2   561.0       6.317     1.7       0.0       1.0            
C7H15O2-4          2   561.0       6.317     1.7       0.0       1.0            
C7H14OOH1-3        2   561.0       6.317     1.7       0.0       1.0            
C7H14OOH2-3        2   561.0       6.317     1.7       0.0       1.0            
C7H14OOH2-4        2   561.0       6.317     1.7       0.0       1.0            
C7H14OOH3-2        2   561.0       6.317     1.7       0.0       1.0            
C7H14OOH3-4        2   561.0       6.317     1.7       0.0       1.0            
C7H14OOH3-5        2   561.0       6.317     1.7       0.0       1.0            
C7H14OOH4-2        2   561.0       6.317     1.7       0.0       1.0            
C7H14OOH4-3        2   561.0       6.317     1.7       0.0       1.0            
C7H14OOH1-3O2      2   600.6       7.229     1.8       0.0       1.0            
C7H14OOH2-4O2      2   600.6       7.229     1.8       0.0       1.0            
C7H14OOH3-5O2      2   600.6       7.229     1.8       0.0       1.0            
C7H14OOH4-2O2      2   600.6       7.229     1.8       0.0       1.0            
C7H14O1-3          2   511.5       6.297     0.0       0.0       1.0            
C7H14O2-4          2   511.5       6.297     0.0       0.0       1.0            
NC7KET13           2   581.3       6.506     2.0       0.0       1.0            
NC7KET24           2   581.3       6.506     2.0       0.0       1.0            
NC7KET35           2   581.3       6.506     2.0       0.0       1.0            
NC7KET42           2   581.3       6.506     2.0       0.0       1.0            
N2                 1   97.530      3.621     0.000     1.760     4.000          
END

REACTIONS
!1
  CH3+H(+M) = CH4(+M) 2.138E+15  -0.40  0.000E+00
           LOW / 3.310E+30 -4.00 2108. /
     TROE/0.0  1.E-15  1.E-15  40./
     H2/2/ H2O/5/ CO/2/ CO2/3/
!2
  CH4+H  =  CH3+H2  1.727E+04  3.00  8.224E+03
    REV /  6.610E+02  3.00  7.744E+03 /
!3
  CH4+OH  =  CH3+H2O  1.930E+05  2.40  2.106E+03
    REV /  3.199E+04  2.40  1.678E+04 /
!4
  CH4+O  =  CH3+OH  3.150E+12  0.50  1.029E+04
    REV /  5.296E+10  0.50  7.715E+03 /
!5
  C2H6+CH3  =  C2H5+CH4  1.510E-07  6.00  6.047E+03
    REV /  9.649E-10  6.56  1.022E+04 /
!6
  HCO+OH  =  CO+H2O  1.020E+14  0.00  0.000E+00
    REV /  2.896E+15  0.00  1.052E+05 /
!7
  CO+OH  =  CO2+H  1.400E+05  1.95 -1.347E+03
    REV /  1.568E+07  1.95  2.099E+04 /
!8
  H+O2  =  O+OH  1.970E+14  0.00  1.654E+04
    REV /  1.555E+13  0.00  4.250E+02 /
!9
  O+H2  =  H+OH  5.080E+04  2.67  6.292E+03
    REV /  2.231E+04  2.67  4.197E+03 /
!10
  O+H2O  =  OH+OH  2.970E+06  2.02  1.340E+04
    REV /  3.013E+05  2.02 -3.850E+03 /
!11
  OH+H2  =  H+H2O  2.160E+08  1.51  3.430E+03
    REV /  9.352E+08  1.51  1.858E+04 /
!12
 HCO+M = H+CO+M 1.860E+17 -1.00 1.700E+04
           REV / 6.467E+13 0.00 -4.420E+02 /
   H2/2.5/ H2O/12/ CO/1.9/ CO2/3.8/
!13
 H2O2+OH = H2O+HO2  1.000E+12   0.00  0.000E+00
           REV / 1.685E+11  0.33 3.146E+04 /
    DUPLICATE
!14
 C2H4+O = CH3+HCO  1.020E+07   1.88  1.790E+02
           REV / 2.851E+08  1.05 3.177E+04 /
!15
 H+C2H4(+M) = C2H5(+M) 1.081E+12   0.45  1.822E+03
           LOW / 1.112E+34 -5.00 4.448E+03 /
  TROE/1.0  1.000E-15  9.500E+01  2.000E+02/
  H2/2/ H2O/5/ CO/2/ CO2/3/
!16
  C2H6+H  =  C2H5+H2  5.540E+02  3.50  5.167E+03
    REV /  1.355E-01  4.06  8.857E+03 /
!17
  C2H5+O2  =  C2H4+HO2  1.220E+30  -5.76  1.010E+04
    REV /  1.259E+30  -5.63  2.230E+04 /
!18
  C2H6+OH  =  C2H5+H2O  5.800E+07  1.73  1.160E+03
    REV /  6.142E+04  2.29  2.000E+04 /
!19
  C2H6+O  =  C2H5+OH  1.300E+07  2.13  5.190E+03
    REV /  1.397E+03  2.69  6.785E+03 /
!20
  CH3+HO2  =  CH3O+OH  1.100E+13  0.00  0.000E+00
    REV /  4.780E+14  -0.35  2.455E+04 /
!21
  CO+HO2  =  CO2+OH  3.010E+13  0.00  2.300E+04
    REV /  6.435E+15  -0.33  8.461E+04 /
!22
 CH3+CH3(+M) = C2H6(+M) 9.214E+16  -1.17  6.358E+02
           LOW / 1.135E+36 -5.246 1.705E+03 /
 TROE/0.405 1120. 69.6 1.E+15/
  H2/2/ H2O/5/ CO/2/ CO2/3/
!23
 H2O+M = H+OH+M 1.837E+27 -3.00  1.226E+05
               REV/ 2.250E+22 -2.00  0.000E+00 /
   H2/2.5/ H2O/12/ CO/1.9/ CO2/3.8/
!24
 H+O2(+M) = HO2(+M) 1.475E+12 0.60  0.000E+00
               LOW/ 3.500E+16 -0.41 -1.1160E+03 /
 TROE/5.0000E-01  1.0000E-30  1.0000E+30 1.00E+100/
 H2/2.5/ H2O/12/ CO/1.9/ CO2/3.8/
!25
 CO+O(+M) = CO2(+M) 1.800E+10  0.00  2.384E+03
               LOW/ 1.350E+24 -2.788  4191. /
   H2/2.5/ H2O/12/ CO/1.9/ CO2/3.8/
!26
  CO+O2  =  CO2+O  1.620E+13  0.00  4.770E+04
    REV /  1.433E+14  0.00  5.392E+04 /
!27
  HCO+H  =  CO+H2  7.340E+13  0.00  0.000E+00
    REV /  4.813E+14  0.00  9.000E+04 /
!28
  HCO+O  =  CO+OH  3.020E+13  0.00  0.000E+00
    REV /  8.697E+13  0.00  8.790E+04 /
!29
  CH2O+M  =  HCO+H+M  6.283E+29  -3.57  9.320E+04
    REV /  2.660E+24  -2.57  4.270E+02 /
!30
  CH2O+OH  =  HCO+H2O  3.430E+09  1.18 -4.470E+02
    REV /  1.186E+09  1.18  2.938E+04 /
!31
  CH2O+H  =  HCO+H2  9.334E+08  1.50  2.976E+03
    REV /  7.453E+07  1.50  1.765E+04 /
!32
  CH2O+O  =  HCO+OH  4.160E+11  0.57  2.762E+03
    REV /  1.459E+10  0.57  1.534E+04 /
!33
  CH3+OH  =  CH2O+H2  2.250E+13  0.00  4.300E+03
    REV /  6.756E+14  0.00  7.602E+04 /
!34
  CH3+O  =  CH2O+H  8.000E+13  0.00  0.000E+00
    REV /  1.055E+15  0.00  6.963E+04 /
!35
  CH3+O2  =  CH3O+O  1.995E+18  -1.57  2.921E+04
    REV /  3.585E+18  -1.59 -1.631E+03 /
!36
  CH2O+CH3  =  HCO+CH4  3.636E-06  5.42  9.980E+02
    REV /  7.584E-06  5.42  1.615E+04 /
!37
  HCO+CH3  =  CH4+CO  1.210E+14  0.00  0.000E+00
    REV /  2.073E+16  0.00  9.048E+04 /
!38
 CH3O(+M) = CH2O+H(+M)  5.450E+13   0.00  1.350E+04
                LOW / 2.344E+25 -2.7  3.060E+04 /
!39
 C2H4(+M) = C2H2+H2(+M)  1.800E+13   0.00  7.600E+04
           LOW / 1.500E+15 0.00 5.5443E+04 /
!40
  HO2+O  =  OH+O2  3.250E+13  0.00  0.000E+00
    REV /  7.857E+14  -0.33  5.539E+04 /
!41
  HCO+HO2  =  CH2O+O2  2.974E+10  0.33 -3.861E+03
    REV /  2.050E+13  0.00  3.895E+04 /
!42
  CH3O+O2  =  CH2O+HO2  5.500E+10  0.00  2.424E+03
    REV /  1.318E+09  0.35  3.139E+04 /
!43
  CH3+HO2  =  CH4+O2  3.600E+12  0.00  0.000E+00
    REV /  5.177E+15  -0.33  5.796E+04 /
!44
  HCO+O2  =  CO+HO2  7.580E+12  0.00  4.100E+02
    REV /  9.029E+11  0.33  3.293E+04 /
!45
  HO2+H  =  OH+OH  7.080E+13  0.00  3.000E+02
    REV /  1.352E+14  -0.33  3.957E+04 /
!46
  HO2+H  =  H2+O2  1.660E+13  0.00  8.200E+02
    REV /  9.138E+14  -0.33  5.830E+04 /
!47
  HO2+OH  =  H2O+O2  2.890E+13  0.00 -5.000E+02
    REV /  6.888E+15  -0.33  7.214E+04 /
!48
  H2O2+O2  =  HO2+HO2  5.942E+17  -0.66  5.315E+04
    REV /  4.200E+14  0.00  1.198E+04 /
    DUPLICATE
!49
 OH+OH(+M) = H2O2(+M) 1.236E+14   -.37  0.000E+00
           LOW / 3.041E+30 -4.63 2049. /
 TROE /0.47 100. 2000. 1.0E+15/
 H2/2.5/ H2O/12/ CO/1.9/ CO2/3.8/
!50
  H2O2+H  =  H2O+OH  2.410E+13  0.00  3.970E+03
    REV /  7.750E+12  0.00  7.470E+04 /
!51
  CH4+HO2  =  CH3+H2O2  3.420E+11  0.00  1.929E+04
    REV /  3.365E+11  -0.33  2.502E+03 /
!52
  CH2O+HO2  =  HCO+H2O2  5.820E-03  4.53  6.557E+03
    REV /  1.194E-02  4.20  4.921E+03 /
!53
  OH+M = O+H+M  3.909E+22  -2.00  1.053E+05
        REV /  4.720E+18  -1.00  0.000E+00 /
H2/2.5/ H2O/12/ CO/1.9/ CO2/3.8/
!54
 O2+M = O+O+M 6.473E+20 -1.50 1.215E+05
           REV / 6.170E+15 -0.50 0.000E+00 /
H2/2.5/ H2O/12/ CO/1.9/ CO2/3.8/
!55
 H2+M = H+H+M 4.570E+19 -1.40  1.044E+05
               REV/ 2.423E+15 -0.40 -3.040E+03 /
H2/2.5/ H2O/12/ CO/1.9/ CO2/3.8/
!56
 C2H3+H(+M) = C2H4(+M) 6.100E+12 0.27  2.800E+02
              LOW / 9.800E+29 -3.86 3.320E+03 /
 TROE /0.782 208. 2663. 6095./
!57
 C2H5+C2H3 = C2H4+C2H4 5.765E+14 -0.63 2.490E+03
                REV/ 4.820E+14  0.00 7.153E+04 /
!58
 C2H2+H(+M) = C2H3(+M) 3.110E+11   0.58  2.589E+03
               LOW/ 2.254E+40 -7.269  6577. /
  TROE/ 1.0 1.E-15 675. 1.E+15/
  H2/2/ H2O/5/ CO/2/ CO2/3/
!59
  C2H4+H  =  C2H3+H2  8.420E-03  4.62  2.583E+03
    REV /  5.723E-01  3.79  3.233E+03 /
!60
  C2H4+OH  =  C2H3+H2O  2.050E+13  0.00  5.950E+03
    REV /  6.033E+15  -0.83  2.176E+04 /
!61
  C2H2+O2  =  HCCO+OH  2.000E+08  1.50  3.010E+04
    REV /  2.232E+05  1.50  2.540E+04 /
!62
 C2H3+O2 = C2H2+HO2 2.120E-06 6.00 9.484E+03
           REV / 1.114E-07 6.33 1.757E+04 /
!63
  H2O2+O  =  OH+HO2  9.550E+06  2.00  3.970E+03
    REV /  1.632E+05  2.33  1.818E+04 /
!64
  C2H2+O  =  HCCO+H  1.430E+07  2.00  1.900E+03
    REV /  2.021E+05  2.00  1.331E+04 /
!65
  C2H2+OH  =  CH2CO+H  2.190E-04  4.50 -1.000E+03
    REV /  2.161E-03  4.50  1.966E+04 /
!66
  CH2CO+H  =  CH3+CO  1.100E+13  0.00  3.400E+03
    REV /  2.400E+12  0.00  4.020E+04 /
!67
  CH2CO+O  =  HCCO+OH  1.000E+13  0.00  8.000E+03
    REV /  1.432E+10  0.00 -1.255E+03 /
!68
  CH2CO+OH  =  HCCO+H2O  1.000E+13  0.00  2.000E+03
    REV /  1.412E+11  0.00  9.995E+03 /
!69
  CH2CO+H  =  HCCO+H2  2.000E+14  0.00  8.000E+03
    REV /  6.522E+11  0.00  8.400E+02 /
!70
  HCCO+OH  =  HCO+HCO  1.000E+13  0.00  0.000E+00
    REV /  2.411E+14  0.00  4.036E+04 /
!71
  HCCO+H  =  CH2(S)+CO  1.100E+14  0.00  0.000E+00
    REV /  2.046E+12  0.89  2.783E+04 /
!72
  HCCO+O  =  H+CO+CO  8.000E+13  0.00  0.000E+00
    REV /  0.000E+00  0.00  0.000E+00 /
!73
  C2H6+O2  =  C2H5+HO2  6.030E+13  0.00  5.187E+04
    REV /  2.679E+08  0.89 -1.922E+03 /
!74
  C2H6+HO2  =  C2H5+H2O2  1.320E+13  0.00  2.047E+04
    REV /  8.298E+10  0.24  7.852E+03 /
!75
  CH3+C2H3  =  CH4+C2H2  3.920E+11  0.00  0.000E+00
    REV /  2.962E+13  0.00  6.605E+04 /
!76
  CH3+C2H5  =  CH4+C2H4  1.950E+13  -0.50  0.000E+00
    REV /  2.895E+16  -0.70  7.017E+04 /
!77
  C2H3+H  =  C2H2+H2  2.000E+13  0.00  2.500E+03
    REV /  1.331E+13  0.00  6.808E+04 /
!78
  C2H5+H  =  CH3+CH3  3.610E+13  0.00  0.000E+00
    REV /  5.446E+16  -1.03  1.698E+04 /
!79
  C2H3+O2  =  CH2O+HCO  1.700E+29  -5.31  6.500E+03
    REV /  1.657E+29  -5.31  9.305E+04 /
!80
  C2H6  =  C2H5+H  2.783E+21  -1.56  1.038E+05
    REV /  3.610E+13  0.00  0.000E+00 /
!81
  C2H4+CH3  =  C2H3+CH4  6.620E+00  3.70  9.500E+03
    REV /  1.440E+00  4.02  5.472E+03 /
!82
 CH3CO(+M) = CH3+CO(+M) 3.000E+12 0.00 1.672E+04
           LOW / 1.200E+15  0.00 1.2518E+04 /
!83
  CH3CHO  =  CH3+HCO  2.614E+15  0.15  8.055E+04
    REV /  2.000E+13  0.00  0.000E+00 /
!84
  CH3CHO+O2  =  CH3CO+HO2  3.010E+13  0.00  3.915E+04
    REV /  8.552E+10  0.32 -1.940E+03 /
!85
  CH3CHO+OH  =  CH3CO+H2O  2.000E+06  1.80  1.300E+03
    REV /  1.354E+06  1.79  3.285E+04 /
!86
  CH3CHO+H  =  CH3CO+H2  1.340E+13  0.00  3.300E+03
    REV /  2.096E+12  -0.01  1.969E+04 /
!87
  CH3CHO+O  =  CH3CO+OH  5.940E+12  0.00  1.868E+03
    REV /  4.080E+11  -0.01  1.617E+04 /
!88
  CH3CHO+HO2  =  CH3CO+H2O2  3.010E+12  0.00  1.192E+04
    REV /  1.210E+13  -0.34  1.201E+04 /
!89
  CH3CHO+CH3  =  CH3CO+CH4  2.608E+06  1.78  5.911E+03
    REV /  1.066E+07  1.77  2.278E+04 /
!90
  C3H5-A  =  C2H2+CH3  2.397E+48  -9.90  8.208E+04
    REV /  2.610E+46  -9.82  3.695E+04 /
!91
  C3H6  =  C2H3+CH3  2.730E+62 -13.28  1.232E+05
    REV /  4.712E+59 -13.19  2.954E+04 /
!92
  C2H2+CH3  =  C3H4-A+H  6.740E+19  -2.08  3.159E+04
    REV /  1.149E+16  -0.70  1.579E+04 /
!93
  C3H6  =  C3H5-A+H  2.010E+61 -13.26  1.185E+05
    REV /  4.887E+56 -12.25  2.808E+04 /
!94
  C3H6+O  =  CH2CO+CH3+H  2.500E+07  1.76  7.600E+01
    REV /  1.000E+00  0.00  0.000E+00 /
!95
  C3H6+O  =  C2H5+HCO  1.580E+07  1.76 -1.216E+03
    REV /  1.402E+05  1.88  2.651E+04 /
!96
  C3H6+HO2  =  C3H5-A+H2O2  1.500E+11  0.00  1.419E+04
    REV /  5.867E+05  1.33  9.759E+03 /
!97
  C3H6+OH  =  C3H5-A+H2O  3.120E+06  2.00 -2.980E+02
    REV /  6.194E+06  2.01  3.188E+04 /
!98
  C4H6  =  C2H3+C2H3  4.027E+19  -1.00  9.815E+04
    REV /  1.260E+13  0.00  0.000E+00 /
!99
  C4H6+OH  =  C2H5+CH2CO  1.000E+12  0.00  0.000E+00
    REV /  3.730E+12  0.00  3.002E+04 /
!100
  C4H6+OH  =  CH2O+C3H5-A  1.000E+12  0.00  0.000E+00
    REV /  3.501E+06  0.00  7.106E+04 /
!101
  C4H6+OH  =  C2H3+CH3CHO  1.000E+12  0.00  0.000E+00
    REV /  5.437E+11  0.00  1.855E+04 /
!102
  C4H6+O  =  C2H4+CH2CO  1.000E+12  0.00  0.000E+00
    REV /  6.377E+11  0.00  9.434E+04 /
!103
  C4H6+O  =  CH2O+C3H4-A  1.000E+12  0.00  0.000E+00
    REV /  1.075E+12  0.00  7.905E+04 /
!104
  C2H4+O2  =  C2H3+HO2  4.000E+13  0.00  5.820E+04
    REV /  4.939E+13  -0.50  1.368E+03 /
!105
  CH2O+M  =  CO+H2+M  1.826E+32  -4.42  8.712E+04
    REV /  5.070E+27  -3.42  8.435E+04 /
!106
  NC3H7  =  CH3+C2H4  2.284E+14  -0.55  2.840E+04
    REV /  4.100E+11  0.00  7.204E+03 /
!107
  NC3H7  =  H+C3H6  2.667E+15  -0.64  3.682E+04
    REV /  1.000E+13  0.00  2.500E+03 /
!108
  NC3H7+O2  =  C3H6+HO2  3.000E+11  0.00  3.000E+03
    REV /  2.000E+11  0.00  1.750E+04 /
!109
  C3H6+O  =  C3H5-A+OH  5.240E+11  0.70  5.884E+03
    REV /  1.055E+11  0.71  2.082E+04 /
!110
  C3H6+H  =  C3H5-A+H2  1.730E+05  2.50  2.492E+03
    REV /  7.933E+04  2.51  1.952E+04 /
!111
  C3H6+H  =  C2H4+CH3  4.830E+33  -5.81  1.850E+04
    REV /  2.313E+33  -5.90  3.162E+04 /
!112
  C5H9  =  C3H5-A+C2H4  2.500E+13  0.00  4.500E+04
    REV /  0.000E+00  0.00  0.000E+00 /
!113
  C5H9  =  C4H6+CH3  1.339E+15  -0.52  3.832E+04
    REV /  1.750E+11  0.00  7.600E+03 /
!114
  C4H7  =  C4H6+H  1.200E+14  0.00  4.930E+04
    REV /  4.000E+13  0.00  1.300E+03 /
!115
  C4H7  =  C2H4+C2H3  1.000E+11  0.00  3.700E+04
    REV /  5.000E+10  0.00  7.000E+03 /
!116
  C4H8-1+C4H6  =  C4H7+C4H7  2.350E+12  0.00  4.672E+04
    REV /  1.600E+12  0.00  0.000E+00 /
!117
  C4H7+CH3  =  C4H6+CH4  8.000E+12  0.00  0.000E+00
    REV /  7.050E+13  0.00  5.728E+04 /
!118
  C3H5-A+C4H7  =  C3H6+C4H6  6.310E+12  0.00  0.000E+00
    REV /  1.000E+10  0.00  5.000E+04 /
!119
  C4H7+O2  =  C4H6+HO2  1.000E+09  0.00  0.000E+00
    REV /  1.000E+11  0.00  1.700E+04 /
!120
  H+C4H7  =  C4H6+H2  3.160E+13  0.00  0.000E+00
    REV /  1.066E+13  0.00  5.681E+04 /
!121
  C2H5+C4H7  =  C4H6+C2H6  3.980E+12  0.00  0.000E+00
    REV /  3.211E+12  0.00  4.984E+04 /
!122
  C2H5+C4H7  =  C2H4+C4H8-1  9.240E+06  1.50 -9.620E+02
    REV /  7.807E+02  2.91  5.096E+04 /
!123
  C2H3+C4H7  =  C2H4+C4H6  3.980E+12  0.00  0.000E+00
    REV /  1.157E+13  0.00  5.771E+04 /
!124
  C4H8-1  =  C3H5-A+CH3  5.000E+15  0.00  7.100E+04
    REV /  5.000E+12  0.00  0.000E+00 /
!125
  C4H8-1  =  C2H3+C2H5  1.000E+19  -1.00  9.677E+04
    REV /  9.000E+12  0.00  0.000E+00 /
!126
  C4H8-1  =  H+C4H7  4.107E+18  -1.00  9.735E+04
    REV /  5.000E+13  0.00  0.000E+00 /
!127
  C4H8-1+CH3  =  C4H7+CH4  1.000E+11  0.00  7.300E+03
    REV /  6.000E+11  0.00  1.786E+04 /
!128
  C4H8-1+H  =  C4H7+H2  5.000E+13  0.00  3.900E+03
    REV /  4.000E+13  0.00  2.520E+04 /
!129
  C4H8-1+OH  =  C4H7+H2O  2.250E+13  0.00  2.217E+03
    REV /  4.772E+12  0.00  2.647E+04 /
!130
  C4H8-1+C3H5-A  =  C4H7+C3H6  7.900E+10  0.00  1.240E+04
    REV /  1.000E+11  0.00  1.750E+04 /
!131
  C4H8-1+HO2  =  C4H7+H2O2  1.400E+12  0.00  1.490E+04
    REV /  3.160E+11  0.00  1.300E+04 /
!132
  C4H8-1+O2  =  C4H7+HO2  2.700E+13  0.00  3.320E+04
    REV /  3.000E+11  0.00  0.000E+00 /
!133
  PC4H9  =  C2H5+C2H4  7.497E+17  -1.41  2.958E+04
    REV /  3.300E+11  0.00  7.200E+03 /
!134
  PC4H9  =  C4H8-1+H  1.159E+17  -1.17  3.816E+04
    REV /  1.000E+13  0.00  2.900E+03 /
!135
  PC4H9+O2  =  C4H8-1+HO2  3.000E-19  0.00  3.000E+03
    REV /  2.000E-19  0.00  1.750E+04 /
!136
  CH3COCH2  =  CH2CO+CH3  1.000E+14  0.00  3.100E+04
    REV /  1.000E+11  0.00  6.000E+03 /
!137
  C2H5CO  =  C2H5+CO  1.834E+15  -0.73  1.291E+04
    REV /  1.510E+11  0.00  4.810E+03 /
!138
  C2H5CHO+H  =  C2H5CO+H2  4.000E+13  0.00  4.200E+03
    REV /  5.854E+12  0.00  2.059E+04 /
!139
  C2H5CHO+O  =  C2H5CO+OH  5.000E+12  0.00  1.790E+03
    REV /  3.214E+11  0.00  1.608E+04 /
!140
  C2H5CHO+OH  =  C2H5CO+H2O  2.690E+10  0.76 -3.400E+02
    REV /  1.705E+10  0.76  3.120E+04 /
!141
  C2H5CHO+CH3  =  C2H5CO+CH4  2.608E+06  1.78  5.911E+03
    REV /  9.972E+06  1.78  2.278E+04 /
!142
  C2H5CHO+HO2  =  C2H5CO+H2O2  2.800E+12  0.00  1.360E+04
    REV /  1.053E+13  -0.33  1.368E+04 /
!143
  C2H5CHO+C2H5  =  C2H5CO+C2H6  1.000E+12  0.00  8.000E+03
    REV /  5.984E+14  -0.57  2.070E+04 /
!144
  C2H5CHO  =  C2H5+HCO  9.850E+18  -0.73  8.171E+04
    REV /  1.810E+13  0.00  0.000E+00 /
!145
  C2H5CHO+O2  =  C2H5CO+HO2  1.005E+13  0.00  4.070E+04
    REV /  2.672E+10  0.33 -3.960E+02 /
!146
  C2H5CHO+C2H3  =  C2H5CO+C2H4  1.700E+12  0.00  8.440E+03
    REV /  3.661E+09  0.83  2.418E+04 /
!147
  C2H5CHO+C3H5-A  =  C2H5CO+C3H6  1.700E+12  0.00  8.440E+03
    REV /  1.000E+13  0.00  2.800E+04 /
!148
  C5H10-1  =  C2H5+C3H5-A  9.173E+20  -1.63  7.399E+04
    REV /  4.000E+12  0.00 -5.960E+02 /
!149
  C5H10-1+H  =  C5H9+H2  2.800E+13  0.00  4.000E+03
    REV /  1.000E+12  0.00  1.400E+04 /
!150
  C5H10-1+O  =  C5H9+OH  2.540E+05  2.56 -1.130E+03
    REV /  7.000E+11  0.00  2.990E+04 /
!151
  C5H10-1+O  =  PC4H9+HCO  1.000E+11  0.00  0.000E+00
    REV /  0.000E+00  0.00  0.000E+00 /
!152
  C5H10-1+O  =  NC3H7+CH3CO  1.000E+11  0.00  0.000E+00
    REV /  0.000E+00  0.00  0.000E+00 /
!153
  C5H10-1+OH  =  C5H9+H2O  5.120E+06  2.00 -2.980E+02
    REV /  2.060E+07  2.16  3.497E+04 /
!154
  C5H10-1+OH  =  PC4H9+CH2O  1.000E+11  0.00  0.000E+00
    REV /  0.000E+00  0.00  0.000E+00 /
!155
  C5H10-1+OH  =  NC3H7+CH3CHO  1.000E+11  0.00  0.000E+00
    REV /  0.000E+00  0.00  0.000E+00 /
!156
  C5H10-1+CH3  =  C5H9+CH4  1.000E+11  0.00  7.300E+03
    REV /  6.000E+11  0.00  1.790E+04 /
!157
  H2O2+H  =  H2+HO2  4.820E+13  0.00  7.950E+03
    REV /  1.875E+12  0.33  2.426E+04 /
!158
  HCO+O  =  CO2+H  3.000E+13  0.00  0.000E+00
    REV /  9.677E+15  0.00  1.102E+05 /
!159
  CH3CO+H  =  CH2CO+H2  2.000E+13  0.00  0.000E+00
    REV /  5.626E+17  -1.13  6.370E+04 /
!160
  CH3CO+O  =  CH2CO+OH  2.000E+13  0.00  0.000E+00
    REV /  5.951E+18  -1.13  1.207E+05 /
!161
  CH3CO+CH3  =  CH2CO+CH4   5.000E+13  0.00  0.000E+00
    REV /  8.197E+17  -0.67  7.983E+04 /
!162
  C2H4+O  =  CH2CHO+H  3.390E+06  1.88  1.790E+02
    REV /  9.481E+06  1.79  1.605E+04 /
!163
  C2H5+O  =  CH3CHO+H  5.000E+13  0.00  0.000E+00
    REV /  5.505E+14  0.11  7.439E+04 /
!164
  C2H3+C2H4  =  C4H6+H  5.000E+11  0.00  7.300E+03
    REV /  1.000E+13  0.00  4.700E+03 /
!165
  C2H5O+M  =  CH3+CH2O+M  1.350E+38  -6.96  2.380E+04
    REV /  6.442E+36  -6.99  1.685E+04 /
!166
  C2H5O+O2  =  CH3CHO+HO2  4.280E+10  0.00  1.097E+03
    REV /  3.872E+08  0.44  3.188E+04 /
!167
  H2O2+O2  =  HO2+HO2  1.839E+14  -0.66  3.954E+04
    REV /  1.300E+11  0.00 -1.629E+03 /
           DUPLICATE
!168
  C2H3+O2  =  CH2CHO+O  3.500E+14  -0.61  5.260E+03
    REV /  2.589E+12  0.12  6.459E+03 /
!169
  CH3O2+M  =  CH3+O2+M  4.343E+27  -3.42  3.047E+04
    REV /  5.440E+25  -3.30  0.000E+00 /
!170
  CH3O2H  =  CH3O+OH  6.310E+14  0.00  4.230E+04
    REV /  1.166E+11  0.60 -1.771E+03 /
!171
  C3H2+O2  =  HCCO+CO+H  5.000E+13  0.00  0.000E+00
    REV /  0.000E+00  0.00  0.000E+00 /
!172
  CH3O2+CH2O  =  CH3O2H+HCO  1.990E+12  0.00  1.166E+04
    REV /  8.504E+12  -0.50  7.009E+03 /
!173
  C2H4+CH3O2  =  C2H3+CH3O2H  2.230E+12  0.00  1.719E+04
    REV /  8.112E+15  -1.33 -1.489E+03 /
!174
  CH4+CH3O2  =  CH3+CH3O2H  1.810E+11  0.00  1.848E+04
    REV /  3.708E+11  -0.50 -1.327E+03 /
!175
  C2H5+HO2  =  C2H5O+OH  3.200E+13  0.00  0.000E+00
    REV /  3.075E+15  -0.32  2.749E+04 /
!176
  CH3O2+CH3  =  CH3O+CH3O  7.000E+12  0.00 -1.000E+03
    REV /  2.971E+16  -0.93  2.831E+04 /
!177
  CH3O2+C2H5  =  CH3O+C2H5O  7.000E+12  0.00 -1.000E+03
    REV /  6.569E+16  -0.90  3.126E+04 /
!178
  CH3O2+HO2  =  CH3O2H+O2  1.750E+10  0.00 -3.275E+03
    REV /  5.156E+13  -0.83  3.488E+04 /
!179
  H2O2+OH  =  H2O+HO2  5.800E+14  0.00  9.560E+03
    REV /  9.771E+13  0.33  4.102E+04 /
    DUPLICATE
!180
  CH3O2+CH3O2  =  O2+CH3O+CH3O  1.400E+16  -1.61  1.860E+03
    REV /  0.000E+00  0.00  0.000E+00 /
!181
  C2H6+CH3O2  =  C2H5+CH3O2H  1.320E+13  0.00  2.047E+04
    REV /  1.728E+11  0.06  4.832E+03 /
!182
  C2H5O+M  =  CH3CHO+H+M  1.160E+35  -5.89  2.527E+04
    REV /  3.063E+30  -4.78  6.100E+03 /
!183
  CH3O2+CH3CHO  =  CH3O2H+CH3CO  3.010E+12  0.00  1.192E+04
    REV /  2.519E+13  -0.51  8.991E+03 /
!184
  C2H3CO  =  C2H3+CO  3.043E+14  -0.46  3.051E+04
    REV /  1.510E+11  0.00  4.810E+03 /
!185
  C2H3CHO+OH  =  C2H3CO+H2O  9.240E+06  1.50 -9.620E+02
    REV /  2.147E+07  1.48  3.551E+04 /
!186
  C2H3CHO+H  =  C2H3CO+H2  1.340E+13  0.00  3.300E+03
    REV /  7.191E+12  -0.02  2.462E+04 /
!187
  C2H3CHO+O  =  C2H3CO+OH  5.940E+12  0.00  1.868E+03
    REV /  1.400E+12  -0.02  2.109E+04 /
!188
  C2H3CHO+HO2  =  C2H3CO+H2O2  3.010E+12  0.00  1.192E+04
    REV /  4.152E+13  -0.35  1.694E+04 /
!189
  C2H3CHO+CH3  =  C2H3CO+CH4  2.608E+06  1.78  5.911E+03
    REV /  3.656E+07  1.76  2.771E+04 /
!190
  C2H3CHO+CH3O2  =  C2H3CO+CH3O2H  3.010E+12  0.00  1.192E+04
    REV /  8.645E+13  -0.53  1.392E+04 /
!191
  C3H5O  =  C2H3CHO+H  1.000E+14  0.00  2.910E+04
    REV /  7.714E+11  0.48  1.775E+04 /
!192
  C3H5O  =  C2H3+CH2O  2.028E+12  0.09  2.356E+04
    REV /  1.500E+11  0.00  1.060E+04 /
!193
  C3H5O+O2  =  C2H3CHO+HO2  1.000E+12  0.00  6.000E+03
    REV /  1.288E+11  0.00  3.200E+04 /
!194
  C3H5-A+HO2  =  C3H5O+OH  7.000E+12  0.00 -1.000E+03
    REV /  2.041E+13  -0.16  1.226E+04 /
!195
  C3H5-A+CH3O2  =  C3H5O+CH3O  7.000E+12  0.00 -1.000E+03
    REV /  1.994E+15  -0.74  1.702E+04 /
!196
  C3H6+CH3O2  =  C3H5-A+CH3O2H  3.240E+11  0.00  1.490E+04
    REV /  2.000E+10  0.00  1.500E+04 /
!197
  CH3+OH  =  CH2(S)+H2O  2.650E+13  0.00  2.186E+03
    REV /  3.236E+10  0.89  1.211E+03 /
!198
  C4H7O  =  CH3CHO+C2H3  7.940E+14  0.00  1.900E+04
    REV /  1.000E+10  0.00  2.000E+04 /
!199
  C4H7O  =  C2H3CHO+CH3  7.940E+14  0.00  1.900E+04
    REV /  1.000E+10  0.00  2.000E+04 /
!200
  C4H7+HO2  =  C4H7O+OH  7.000E+12  0.00 -1.000E+03
    REV /  1.008E+11  0.26  1.689E+04 /
!201
  C4H7+CH3O2  =  C4H7O+CH3O  7.000E+12  0.00 -1.000E+03
    REV /  9.844E+12  -0.32  2.165E+04 /
!202
  C4H8-1+OH  =  NC3H7+CH2O  1.000E+12  0.00  0.000E+00
    REV /  1.620E+12  0.00  1.323E+04 /
!203
  C4H8-1+O  =  C3H6+CH2O  7.230E+05  2.34 -1.050E+03
    REV /  2.000E+05  2.34  8.028E+04 /
!204
  C4H8-1+O  =  CH3CHO+C2H4  1.300E+13  0.00  8.500E+02
    REV /  2.070E+12  0.00  8.510E+04 /
!205
  C4H8-1+O  =  CH3CO+C2H5  1.300E+13  0.00  8.500E+02
    REV /  2.350E+12  0.00  3.815E+04 /
!206
  C4H8-1+OH  =  CH3CHO+C2H5  1.000E+12  0.00  0.000E+00
    REV /  9.330E+12  0.00  1.993E+04 /
!207
  C4H8-1+OH  =  CH3CO+C2H6  5.000E+11  0.00  0.000E+00
    REV /  9.830E+12  0.00  3.243E+04 /
!208
  C4H8-1+O  =  C2H5CO+CH3  1.300E+13  0.00  8.500E+02
    REV /  4.800E+11  0.00  3.255E+04 /
!209
  C4H8-1+OH  =  C2H5CHO+CH3  1.000E+12  0.00  0.000E+00
    REV /  4.950E+10  0.00  1.694E+04 /
!210
  C4H8-1+OH  =  C2H5CO+CH4  5.000E+11  0.00  0.000E+00
    REV /  2.200E+13  0.00  3.427E+04 /
!211
  C4H8-1+CH3O2  =  C4H7+CH3O2H  1.400E+12  0.00  1.490E+04
    REV /  3.160E+11  0.00  1.300E+04 /
!212
  C4H8OOH1-3O2  =  C4H8OOH1-3+O2  5.601E+22  -2.23  3.796E+04
    REV /  7.540E+12  0.00  0.000E+00 /
!213
  C4H8OOH1-3O2  =  NC4KET13+OH  2.500E+10  0.00  2.140E+04
    REV /  6.893E+03  1.30  4.470E+04 /
!214
  C4H8OOH1-3  =  OH+CH2O+C3H6  6.637E+13  -0.16  2.990E+04
    REV /  0.000E+00  0.00  0.000E+00 /
!215
  PC4H9O2  =  C4H8OOH1-3  2.500E+10  0.00  2.085E+04
    REV /  3.231E+09  -0.14  7.871E+03 /
!216
  C2H5CHO+CH3O2  =  C2H5CO+CH3O2H  3.010E+12  0.00  1.192E+04